* NGSPICE file created from shiftreg.ext - technology: sky130A

* Black-box entry subcircuit for sky130_ef_sc_hd__decap_12 abstract view
.subckt sky130_ef_sc_hd__decap_12 VGND VNB VPB VPWR
.ends

* Black-box entry subcircuit for sky130_fd_sc_hd__decap_6 abstract view
.subckt sky130_fd_sc_hd__decap_6 VGND VNB VPB VPWR
.ends

* Black-box entry subcircuit for sky130_fd_sc_hd__fill_2 abstract view
.subckt sky130_fd_sc_hd__fill_2 VGND VNB VPB VPWR
.ends

* Black-box entry subcircuit for sky130_fd_sc_hd__fill_1 abstract view
.subckt sky130_fd_sc_hd__fill_1 VGND VNB VPB VPWR
.ends

* Black-box entry subcircuit for sky130_fd_sc_hd__decap_8 abstract view
.subckt sky130_fd_sc_hd__decap_8 VGND VNB VPB VPWR
.ends

* Black-box entry subcircuit for sky130_fd_sc_hd__clkbuf_1 abstract view
.subckt sky130_fd_sc_hd__clkbuf_1 A VGND VNB VPB VPWR X
.ends

* Black-box entry subcircuit for sky130_fd_sc_hd__dfxtp_2 abstract view
.subckt sky130_fd_sc_hd__dfxtp_2 CLK D VGND VNB VPB VPWR Q
.ends

* Black-box entry subcircuit for sky130_fd_sc_hd__decap_4 abstract view
.subckt sky130_fd_sc_hd__decap_4 VGND VNB VPB VPWR
.ends

* Black-box entry subcircuit for sky130_fd_sc_hd__dfxtp_1 abstract view
.subckt sky130_fd_sc_hd__dfxtp_1 CLK D VGND VNB VPB VPWR Q
.ends

* Black-box entry subcircuit for sky130_fd_sc_hd__buf_2 abstract view
.subckt sky130_fd_sc_hd__buf_2 A VGND VNB VPB VPWR X
.ends

* Black-box entry subcircuit for sky130_fd_sc_hd__mux2_2 abstract view
.subckt sky130_fd_sc_hd__mux2_2 A0 A1 S VGND VNB VPB VPWR X
.ends

* Black-box entry subcircuit for sky130_fd_sc_hd__clkbuf_2 abstract view
.subckt sky130_fd_sc_hd__clkbuf_2 A VGND VNB VPB VPWR X
.ends

* Black-box entry subcircuit for sky130_fd_sc_hd__decap_3 abstract view
.subckt sky130_fd_sc_hd__decap_3 VGND VNB VPB VPWR
.ends

* Black-box entry subcircuit for sky130_fd_sc_hd__tapvpwrvgnd_1 abstract view
.subckt sky130_fd_sc_hd__tapvpwrvgnd_1 VGND VPWR
.ends

* Black-box entry subcircuit for sky130_fd_sc_hd__diode_2 abstract view
.subckt sky130_fd_sc_hd__diode_2 DIODE VGND VNB VPB VPWR
.ends

* Black-box entry subcircuit for sky130_fd_sc_hd__mux2_1 abstract view
.subckt sky130_fd_sc_hd__mux2_1 A0 A1 S VGND VNB VPB VPWR X
.ends

* Black-box entry subcircuit for sky130_fd_sc_hd__mux2_4 abstract view
.subckt sky130_fd_sc_hd__mux2_4 A0 A1 S VGND VNB VPB VPWR X
.ends

* Black-box entry subcircuit for sky130_fd_sc_hd__dfxtp_4 abstract view
.subckt sky130_fd_sc_hd__dfxtp_4 CLK D VGND VNB VPB VPWR Q
.ends

* Black-box entry subcircuit for sky130_fd_sc_hd__buf_6 abstract view
.subckt sky130_fd_sc_hd__buf_6 A VGND VNB VPB VPWR X
.ends

* Black-box entry subcircuit for sky130_fd_sc_hd__dlymetal6s2s_1 abstract view
.subckt sky130_fd_sc_hd__dlymetal6s2s_1 A VGND VNB VPB VPWR X
.ends

* Black-box entry subcircuit for sky130_fd_sc_hd__buf_4 abstract view
.subckt sky130_fd_sc_hd__buf_4 A VGND VNB VPB VPWR X
.ends

* Black-box entry subcircuit for sky130_fd_sc_hd__clkbuf_4 abstract view
.subckt sky130_fd_sc_hd__clkbuf_4 A VGND VNB VPB VPWR X
.ends

.subckt shiftreg VGND VPWR clk data_reg[0] data_reg[10] data_reg[11] data_reg[12]
+ data_reg[13] data_reg[14] data_reg[15] data_reg[16] data_reg[17] data_reg[18] data_reg[19]
+ data_reg[1] data_reg[20] data_reg[21] data_reg[22] data_reg[23] data_reg[24] data_reg[25]
+ data_reg[26] data_reg[27] data_reg[28] data_reg[29] data_reg[2] data_reg[30] data_reg[31]
+ data_reg[32] data_reg[33] data_reg[34] data_reg[35] data_reg[36] data_reg[37] data_reg[38]
+ data_reg[39] data_reg[3] data_reg[4] data_reg[5] data_reg[6] data_reg[7] data_reg[8]
+ data_reg[9] load serial_in serial_out shift_enable
XFILLER_52_29 VGND VGND VPWR VPWR sky130_ef_sc_hd__decap_12
XFILLER_22_133 VGND VGND VPWR VPWR sky130_fd_sc_hd__decap_6
XFILLER_22_188 VGND VGND VPWR VPWR sky130_fd_sc_hd__fill_2
XFILLER_117_55 VGND VGND VPWR VPWR sky130_fd_sc_hd__fill_1
XFILLER_93_14 VGND VGND VPWR VPWR sky130_ef_sc_hd__decap_12
XFILLER_89_188 VGND VGND VPWR VPWR sky130_fd_sc_hd__fill_2
XFILLER_77_26 VGND VGND VPWR VPWR sky130_fd_sc_hd__decap_8
XFILLER_133_87 VGND VGND VPWR VPWR sky130_ef_sc_hd__decap_12
XFILLER_93_69 VGND VGND VPWR VPWR sky130_fd_sc_hd__decap_8
XFILLER_26_41 VGND VGND VPWR VPWR sky130_fd_sc_hd__decap_6
XFILLER_26_85 VGND VGND VPWR VPWR sky130_ef_sc_hd__decap_12
X_294_ _146_ VGND VGND VPWR VPWR _059_ sky130_fd_sc_hd__clkbuf_1
X_363_ clk _027_ VGND VGND VPWR VPWR shift_reg\[39\] sky130_fd_sc_hd__dfxtp_2
XFILLER_95_169 VGND VGND VPWR VPWR sky130_ef_sc_hd__decap_12
XFILLER_95_125 VGND VGND VPWR VPWR sky130_fd_sc_hd__fill_2
XFILLER_67_81 VGND VGND VPWR VPWR sky130_ef_sc_hd__decap_12
XFILLER_83_80 VGND VGND VPWR VPWR sky130_ef_sc_hd__decap_12
XFILLER_103_57 VGND VGND VPWR VPWR sky130_ef_sc_hd__decap_12
XFILLER_63_39 VGND VGND VPWR VPWR sky130_ef_sc_hd__decap_12
XFILLER_10_125 VGND VGND VPWR VPWR sky130_fd_sc_hd__fill_2
XFILLER_128_65 VGND VGND VPWR VPWR sky130_ef_sc_hd__decap_12
XFILLER_92_139 VGND VGND VPWR VPWR sky130_fd_sc_hd__fill_1
XFILLER_77_169 VGND VGND VPWR VPWR sky130_ef_sc_hd__decap_12
XFILLER_77_125 VGND VGND VPWR VPWR sky130_ef_sc_hd__decap_12
XFILLER_37_51 VGND VGND VPWR VPWR sky130_fd_sc_hd__decap_4
X_346_ clk _010_ VGND VGND VPWR VPWR shift_reg\[22\] sky130_fd_sc_hd__dfxtp_2
X_415_ clk _079_ VGND VGND VPWR VPWR shift_reg\[11\] sky130_fd_sc_hd__dfxtp_1
X_277_ _137_ VGND VGND VPWR VPWR _051_ sky130_fd_sc_hd__buf_2
XFILLER_91_161 VGND VGND VPWR VPWR sky130_fd_sc_hd__decap_6
XFILLER_74_27 VGND VGND VPWR VPWR sky130_fd_sc_hd__fill_1
XFILLER_59_169 VGND VGND VPWR VPWR sky130_ef_sc_hd__decap_12
X_200_ shift_reg\[27\] shift_reg\[28\] _091_ VGND VGND VPWR VPWR _097_ sky130_fd_sc_hd__mux2_2
XFILLER_90_48 VGND VGND VPWR VPWR sky130_ef_sc_hd__decap_12
XFILLER_90_15 VGND VGND VPWR VPWR sky130_ef_sc_hd__decap_12
XFILLER_82_183 VGND VGND VPWR VPWR sky130_fd_sc_hd__fill_1
XFILLER_136_141 VGND VGND VPWR VPWR sky130_fd_sc_hd__decap_8
XFILLER_135_3 VGND VGND VPWR VPWR sky130_ef_sc_hd__decap_12
XFILLER_99_57 VGND VGND VPWR VPWR sky130_ef_sc_hd__decap_12
XFILLER_2_165 VGND VGND VPWR VPWR sky130_ef_sc_hd__decap_12
XFILLER_80_109 VGND VGND VPWR VPWR sky130_ef_sc_hd__decap_12
XFILLER_73_161 VGND VGND VPWR VPWR sky130_fd_sc_hd__decap_6
XFILLER_0_57 VGND VGND VPWR VPWR sky130_fd_sc_hd__fill_2
XFILLER_9_55 VGND VGND VPWR VPWR sky130_fd_sc_hd__fill_1
X_329_ _164_ VGND VGND VPWR VPWR _076_ sky130_fd_sc_hd__clkbuf_2
XFILLER_50_3 VGND VGND VPWR VPWR sky130_ef_sc_hd__decap_12
XFILLER_56_139 VGND VGND VPWR VPWR sky130_fd_sc_hd__fill_1
XFILLER_100_14 VGND VGND VPWR VPWR sky130_fd_sc_hd__fill_2
XFILLER_64_183 VGND VGND VPWR VPWR sky130_fd_sc_hd__fill_1
XFILLER_118_141 VGND VGND VPWR VPWR sky130_ef_sc_hd__decap_12
XFILLER_60_29 VGND VGND VPWR VPWR sky130_ef_sc_hd__decap_12
XFILLER_133_166 VGND VGND VPWR VPWR sky130_fd_sc_hd__fill_2
XFILLER_133_111 VGND VGND VPWR VPWR sky130_fd_sc_hd__fill_1
XFILLER_125_55 VGND VGND VPWR VPWR sky130_fd_sc_hd__fill_1
XFILLER_85_15 VGND VGND VPWR VPWR sky130_fd_sc_hd__decap_6
XFILLER_69_27 VGND VGND VPWR VPWR sky130_ef_sc_hd__decap_12
XFILLER_62_109 VGND VGND VPWR VPWR sky130_fd_sc_hd__decap_3
XFILLER_18_97 VGND VGND VPWR VPWR sky130_fd_sc_hd__fill_2
XFILLER_70_153 VGND VGND VPWR VPWR sky130_ef_sc_hd__decap_12
XFILLER_34_41 VGND VGND VPWR VPWR sky130_ef_sc_hd__decap_12
XFILLER_34_85 VGND VGND VPWR VPWR sky130_fd_sc_hd__fill_2
XFILLER_34_96 VGND VGND VPWR VPWR sky130_ef_sc_hd__decap_12
XFILLER_124_133 VGND VGND VPWR VPWR sky130_fd_sc_hd__decap_6
XTAP_507 VGND VPWR sky130_fd_sc_hd__tapvpwrvgnd_1
XFILLER_124_188 VGND VGND VPWR VPWR sky130_fd_sc_hd__fill_2
XTAP_529 VGND VPWR sky130_fd_sc_hd__tapvpwrvgnd_1
XTAP_518 VGND VPWR sky130_fd_sc_hd__tapvpwrvgnd_1
XFILLER_38_139 VGND VGND VPWR VPWR sky130_fd_sc_hd__fill_1
XFILLER_98_3 VGND VGND VPWR VPWR sky130_fd_sc_hd__decap_3
XFILLER_75_81 VGND VGND VPWR VPWR sky130_ef_sc_hd__decap_12
XFILLER_130_125 VGND VGND VPWR VPWR sky130_ef_sc_hd__decap_12
XFILLER_115_188 VGND VGND VPWR VPWR sky130_fd_sc_hd__fill_2
XFILLER_115_111 VGND VGND VPWR VPWR sky130_fd_sc_hd__fill_1
XFILLER_37_161 VGND VGND VPWR VPWR sky130_fd_sc_hd__decap_6
XFILLER_37_183 VGND VGND VPWR VPWR sky130_fd_sc_hd__decap_6
XFILLER_44_109 VGND VGND VPWR VPWR sky130_ef_sc_hd__decap_12
XFILLER_111_57 VGND VGND VPWR VPWR sky130_fd_sc_hd__fill_2
XFILLER_71_39 VGND VGND VPWR VPWR sky130_ef_sc_hd__decap_12
XFILLER_52_153 VGND VGND VPWR VPWR sky130_ef_sc_hd__decap_12
XFILLER_20_65 VGND VGND VPWR VPWR sky130_ef_sc_hd__decap_12
XFILLER_121_169 VGND VGND VPWR VPWR sky130_ef_sc_hd__decap_12
XFILLER_121_125 VGND VGND VPWR VPWR sky130_ef_sc_hd__decap_12
XFILLER_106_188 VGND VGND VPWR VPWR sky130_fd_sc_hd__fill_2
XFILLER_45_51 VGND VGND VPWR VPWR sky130_fd_sc_hd__decap_4
XANTENNA_5 _024_ VGND VGND VPWR VPWR sky130_fd_sc_hd__diode_2
XFILLER_112_147 VGND VGND VPWR VPWR sky130_ef_sc_hd__decap_12
XTAP_315 VGND VPWR sky130_fd_sc_hd__tapvpwrvgnd_1
XTAP_304 VGND VPWR sky130_fd_sc_hd__tapvpwrvgnd_1
XTAP_326 VGND VPWR sky130_fd_sc_hd__tapvpwrvgnd_1
XTAP_337 VGND VPWR sky130_fd_sc_hd__tapvpwrvgnd_1
XTAP_348 VGND VPWR sky130_fd_sc_hd__tapvpwrvgnd_1
XFILLER_13_3 VGND VGND VPWR VPWR sky130_fd_sc_hd__decap_3
XFILLER_19_161 VGND VGND VPWR VPWR sky130_fd_sc_hd__decap_6
XTAP_359 VGND VPWR sky130_fd_sc_hd__tapvpwrvgnd_1
XFILLER_26_109 VGND VGND VPWR VPWR sky130_ef_sc_hd__decap_12
XFILLER_34_120 VGND VGND VPWR VPWR sky130_ef_sc_hd__decap_12
XFILLER_106_79 VGND VGND VPWR VPWR sky130_fd_sc_hd__decap_4
XFILLER_103_169 VGND VGND VPWR VPWR sky130_ef_sc_hd__decap_12
XFILLER_103_125 VGND VGND VPWR VPWR sky130_ef_sc_hd__decap_12
Xoutput42 net42 VGND VGND VPWR VPWR data_reg[8] sky130_fd_sc_hd__buf_2
Xoutput7 net7 VGND VGND VPWR VPWR data_reg[12] sky130_fd_sc_hd__buf_2
Xoutput20 net20 VGND VGND VPWR VPWR data_reg[24] sky130_fd_sc_hd__buf_2
Xoutput31 net31 VGND VGND VPWR VPWR data_reg[34] sky130_fd_sc_hd__buf_2
XFILLER_56_83 VGND VGND VPWR VPWR sky130_fd_sc_hd__fill_1
XPHY_170 VGND VGND VPWR VPWR sky130_fd_sc_hd__decap_3
XFILLER_72_71 VGND VGND VPWR VPWR sky130_ef_sc_hd__decap_12
XFILLER_31_145 VGND VGND VPWR VPWR sky130_ef_sc_hd__decap_12
XPHY_192 VGND VGND VPWR VPWR sky130_fd_sc_hd__decap_3
XPHY_181 VGND VGND VPWR VPWR sky130_fd_sc_hd__decap_3
XFILLER_31_189 VGND VGND VPWR VPWR sky130_fd_sc_hd__fill_1
XFILLER_100_139 VGND VGND VPWR VPWR sky130_fd_sc_hd__fill_1
XFILLER_98_189 VGND VGND VPWR VPWR sky130_fd_sc_hd__fill_1
XTAP_690 VGND VPWR sky130_fd_sc_hd__tapvpwrvgnd_1
XFILLER_133_99 VGND VGND VPWR VPWR sky130_ef_sc_hd__decap_12
XFILLER_93_26 VGND VGND VPWR VPWR sky130_ef_sc_hd__decap_12
XFILLER_89_167 VGND VGND VPWR VPWR sky130_fd_sc_hd__fill_1
XFILLER_9_105 VGND VGND VPWR VPWR sky130_fd_sc_hd__decap_6
XFILLER_13_167 VGND VGND VPWR VPWR sky130_fd_sc_hd__fill_1
XFILLER_26_64 VGND VGND VPWR VPWR sky130_fd_sc_hd__fill_1
XFILLER_26_97 VGND VGND VPWR VPWR sky130_ef_sc_hd__decap_12
X_362_ clk _026_ VGND VGND VPWR VPWR shift_reg\[38\] sky130_fd_sc_hd__dfxtp_2
X_293_ net28 shift_reg\[31\] _144_ VGND VGND VPWR VPWR _146_ sky130_fd_sc_hd__mux2_1
XFILLER_13_189 VGND VGND VPWR VPWR sky130_fd_sc_hd__fill_1
XFILLER_42_85 VGND VGND VPWR VPWR sky130_fd_sc_hd__decap_8
XFILLER_3_57 VGND VGND VPWR VPWR sky130_fd_sc_hd__fill_2
XFILLER_67_93 VGND VGND VPWR VPWR sky130_ef_sc_hd__decap_12
XFILLER_83_92 VGND VGND VPWR VPWR sky130_ef_sc_hd__decap_12
XFILLER_80_3 VGND VGND VPWR VPWR sky130_ef_sc_hd__decap_12
XFILLER_103_69 VGND VGND VPWR VPWR sky130_ef_sc_hd__decap_12
XFILLER_10_115 VGND VGND VPWR VPWR sky130_fd_sc_hd__fill_2
XFILLER_128_77 VGND VGND VPWR VPWR sky130_fd_sc_hd__decap_6
XFILLER_88_26 VGND VGND VPWR VPWR sky130_fd_sc_hd__fill_2
XFILLER_88_15 VGND VGND VPWR VPWR sky130_fd_sc_hd__fill_2
XFILLER_77_137 VGND VGND VPWR VPWR sky130_ef_sc_hd__decap_12
XFILLER_85_181 VGND VGND VPWR VPWR sky130_fd_sc_hd__decap_3
X_345_ clk _009_ VGND VGND VPWR VPWR shift_reg\[21\] sky130_fd_sc_hd__dfxtp_2
X_276_ net19 shift_reg\[23\] _133_ VGND VGND VPWR VPWR _137_ sky130_fd_sc_hd__mux2_2
X_414_ clk _078_ VGND VGND VPWR VPWR shift_reg\[10\] sky130_fd_sc_hd__dfxtp_2
XFILLER_58_29 VGND VGND VPWR VPWR sky130_ef_sc_hd__decap_12
XFILLER_130_89 VGND VGND VPWR VPWR sky130_ef_sc_hd__decap_12
XFILLER_128_109 VGND VGND VPWR VPWR sky130_ef_sc_hd__decap_12
XFILLER_90_27 VGND VGND VPWR VPWR sky130_fd_sc_hd__fill_1
XFILLER_23_10 VGND VGND VPWR VPWR sky130_fd_sc_hd__fill_2
XFILLER_128_3 VGND VGND VPWR VPWR sky130_ef_sc_hd__decap_12
XFILLER_99_69 VGND VGND VPWR VPWR sky130_ef_sc_hd__decap_12
XFILLER_2_177 VGND VGND VPWR VPWR sky130_ef_sc_hd__decap_12
XFILLER_64_83 VGND VGND VPWR VPWR sky130_fd_sc_hd__fill_1
XFILLER_0_47 VGND VGND VPWR VPWR sky130_fd_sc_hd__fill_1
X_328_ shift_reg\[8\] shift_reg\[9\] _157_ VGND VGND VPWR VPWR _164_ sky130_fd_sc_hd__mux2_4
X_259_ net10 shift_reg\[15\] _122_ VGND VGND VPWR VPWR _128_ sky130_fd_sc_hd__mux2_4
XFILLER_89_80 VGND VGND VPWR VPWR sky130_fd_sc_hd__fill_2
XFILLER_43_3 VGND VGND VPWR VPWR sky130_ef_sc_hd__decap_12
XFILLER_49_181 VGND VGND VPWR VPWR sky130_fd_sc_hd__decap_8
XFILLER_100_26 VGND VGND VPWR VPWR sky130_fd_sc_hd__fill_2
XFILLER_118_153 VGND VGND VPWR VPWR sky130_ef_sc_hd__decap_12
XFILLER_109_57 VGND VGND VPWR VPWR sky130_ef_sc_hd__decap_12
XFILLER_69_39 VGND VGND VPWR VPWR sky130_ef_sc_hd__decap_12
XFILLER_70_121 VGND VGND VPWR VPWR sky130_ef_sc_hd__decap_12
XFILLER_70_165 VGND VGND VPWR VPWR sky130_ef_sc_hd__decap_12
XFILLER_34_53 VGND VGND VPWR VPWR sky130_fd_sc_hd__fill_2
XFILLER_50_41 VGND VGND VPWR VPWR sky130_ef_sc_hd__decap_12
XTAP_519 VGND VPWR sky130_fd_sc_hd__tapvpwrvgnd_1
XTAP_508 VGND VPWR sky130_fd_sc_hd__tapvpwrvgnd_1
XFILLER_59_50 VGND VGND VPWR VPWR sky130_fd_sc_hd__decap_6
XFILLER_50_85 VGND VGND VPWR VPWR sky130_ef_sc_hd__decap_12
XFILLER_91_81 VGND VGND VPWR VPWR sky130_ef_sc_hd__decap_12
XFILLER_75_93 VGND VGND VPWR VPWR sky130_ef_sc_hd__decap_12
XFILLER_130_137 VGND VGND VPWR VPWR sky130_fd_sc_hd__decap_3
XFILLER_115_145 VGND VGND VPWR VPWR sky130_ef_sc_hd__decap_12
XFILLER_111_47 VGND VGND VPWR VPWR sky130_fd_sc_hd__fill_1
XFILLER_52_121 VGND VGND VPWR VPWR sky130_ef_sc_hd__decap_12
XFILLER_37_173 VGND VGND VPWR VPWR sky130_fd_sc_hd__fill_1
XFILLER_52_165 VGND VGND VPWR VPWR sky130_ef_sc_hd__decap_12
XFILLER_96_15 VGND VGND VPWR VPWR sky130_ef_sc_hd__decap_12
XFILLER_20_77 VGND VGND VPWR VPWR sky130_fd_sc_hd__decap_6
XFILLER_121_137 VGND VGND VPWR VPWR sky130_ef_sc_hd__decap_12
XANTENNA_6 _024_ VGND VGND VPWR VPWR sky130_fd_sc_hd__diode_2
XFILLER_61_51 VGND VGND VPWR VPWR sky130_fd_sc_hd__decap_4
XFILLER_112_159 VGND VGND VPWR VPWR sky130_fd_sc_hd__decap_6
XTAP_316 VGND VPWR sky130_fd_sc_hd__tapvpwrvgnd_1
XTAP_305 VGND VPWR sky130_fd_sc_hd__tapvpwrvgnd_1
XTAP_327 VGND VPWR sky130_fd_sc_hd__tapvpwrvgnd_1
XTAP_338 VGND VPWR sky130_fd_sc_hd__tapvpwrvgnd_1
XTAP_349 VGND VPWR sky130_fd_sc_hd__tapvpwrvgnd_1
XFILLER_86_81 VGND VGND VPWR VPWR sky130_fd_sc_hd__decap_3
XFILLER_34_132 VGND VGND VPWR VPWR sky130_fd_sc_hd__decap_8
XFILLER_34_176 VGND VGND VPWR VPWR sky130_ef_sc_hd__decap_12
XFILLER_111_181 VGND VGND VPWR VPWR sky130_fd_sc_hd__decap_8
XFILLER_106_69 VGND VGND VPWR VPWR sky130_fd_sc_hd__fill_1
XFILLER_103_137 VGND VGND VPWR VPWR sky130_ef_sc_hd__decap_12
XFILLER_66_29 VGND VGND VPWR VPWR sky130_ef_sc_hd__decap_12
XFILLER_15_55 VGND VGND VPWR VPWR sky130_fd_sc_hd__fill_1
XFILLER_110_3 VGND VGND VPWR VPWR sky130_ef_sc_hd__decap_12
Xoutput43 net43 VGND VGND VPWR VPWR data_reg[9] sky130_fd_sc_hd__buf_2
Xoutput8 net8 VGND VGND VPWR VPWR data_reg[13] sky130_fd_sc_hd__buf_2
Xoutput10 net10 VGND VGND VPWR VPWR data_reg[15] sky130_fd_sc_hd__buf_2
Xoutput32 net32 VGND VGND VPWR VPWR data_reg[35] sky130_fd_sc_hd__buf_2
Xoutput21 net21 VGND VGND VPWR VPWR data_reg[25] sky130_fd_sc_hd__buf_2
XFILLER_16_121 VGND VGND VPWR VPWR sky130_ef_sc_hd__decap_12
XPHY_193 VGND VGND VPWR VPWR sky130_fd_sc_hd__decap_3
XPHY_182 VGND VGND VPWR VPWR sky130_fd_sc_hd__decap_3
XPHY_171 VGND VGND VPWR VPWR sky130_fd_sc_hd__decap_3
XPHY_160 VGND VGND VPWR VPWR sky130_fd_sc_hd__decap_3
XFILLER_72_83 VGND VGND VPWR VPWR sky130_fd_sc_hd__fill_1
XFILLER_16_187 VGND VGND VPWR VPWR sky130_fd_sc_hd__decap_3
XFILLER_31_113 VGND VGND VPWR VPWR sky130_fd_sc_hd__decap_4
XFILLER_31_157 VGND VGND VPWR VPWR sky130_fd_sc_hd__decap_8
XFILLER_117_57 VGND VGND VPWR VPWR sky130_ef_sc_hd__decap_12
XFILLER_89_113 VGND VGND VPWR VPWR sky130_ef_sc_hd__decap_12
XFILLER_89_102 VGND VGND VPWR VPWR sky130_fd_sc_hd__fill_2
XTAP_691 VGND VPWR sky130_fd_sc_hd__tapvpwrvgnd_1
XTAP_680 VGND VPWR sky130_fd_sc_hd__tapvpwrvgnd_1
XFILLER_93_38 VGND VGND VPWR VPWR sky130_ef_sc_hd__decap_12
X_361_ clk _025_ VGND VGND VPWR VPWR shift_reg\[37\] sky130_fd_sc_hd__dfxtp_2
X_292_ _145_ VGND VGND VPWR VPWR _058_ sky130_fd_sc_hd__clkbuf_1
XFILLER_9_139 VGND VGND VPWR VPWR sky130_fd_sc_hd__fill_2
XFILLER_13_113 VGND VGND VPWR VPWR sky130_ef_sc_hd__decap_12
XFILLER_73_3 VGND VGND VPWR VPWR sky130_fd_sc_hd__decap_8
XFILLER_8_183 VGND VGND VPWR VPWR sky130_fd_sc_hd__fill_1
XFILLER_103_15 VGND VGND VPWR VPWR sky130_ef_sc_hd__decap_12
XFILLER_12_34 VGND VGND VPWR VPWR sky130_fd_sc_hd__fill_2
XFILLER_6_109 VGND VGND VPWR VPWR sky130_ef_sc_hd__decap_12
XFILLER_12_78 VGND VGND VPWR VPWR sky130_fd_sc_hd__fill_2
XFILLER_77_149 VGND VGND VPWR VPWR sky130_ef_sc_hd__decap_12
XFILLER_77_105 VGND VGND VPWR VPWR sky130_fd_sc_hd__decap_6
X_413_ clk _077_ VGND VGND VPWR VPWR shift_reg\[9\] sky130_fd_sc_hd__dfxtp_4
X_275_ _136_ VGND VGND VPWR VPWR _050_ sky130_fd_sc_hd__clkbuf_2
X_344_ clk _008_ VGND VGND VPWR VPWR shift_reg\[20\] sky130_fd_sc_hd__dfxtp_1
XFILLER_5_175 VGND VGND VPWR VPWR sky130_fd_sc_hd__fill_2
XFILLER_5_142 VGND VGND VPWR VPWR sky130_fd_sc_hd__fill_2
XFILLER_114_25 VGND VGND VPWR VPWR sky130_fd_sc_hd__decap_3
XFILLER_59_149 VGND VGND VPWR VPWR sky130_fd_sc_hd__fill_2
XFILLER_82_141 VGND VGND VPWR VPWR sky130_ef_sc_hd__decap_12
XFILLER_74_29 VGND VGND VPWR VPWR sky130_ef_sc_hd__decap_12
XFILLER_136_176 VGND VGND VPWR VPWR sky130_fd_sc_hd__fill_2
XFILLER_3_3 VGND VGND VPWR VPWR sky130_ef_sc_hd__decap_12
XFILLER_0_15 VGND VGND VPWR VPWR sky130_ef_sc_hd__decap_12
XFILLER_2_189 VGND VGND VPWR VPWR sky130_fd_sc_hd__fill_1
XFILLER_48_41 VGND VGND VPWR VPWR sky130_fd_sc_hd__decap_4
XFILLER_48_85 VGND VGND VPWR VPWR sky130_fd_sc_hd__decap_3
X_189_ net3 VGND VGND VPWR VPWR _091_ sky130_fd_sc_hd__buf_6
XFILLER_80_83 VGND VGND VPWR VPWR sky130_fd_sc_hd__fill_1
XFILLER_9_57 VGND VGND VPWR VPWR sky130_ef_sc_hd__decap_12
X_258_ _127_ VGND VGND VPWR VPWR _042_ sky130_fd_sc_hd__clkbuf_2
X_327_ _163_ VGND VGND VPWR VPWR _075_ sky130_fd_sc_hd__clkbuf_1
XFILLER_36_3 VGND VGND VPWR VPWR sky130_fd_sc_hd__decap_8
XFILLER_64_141 VGND VGND VPWR VPWR sky130_ef_sc_hd__decap_12
XFILLER_133_113 VGND VGND VPWR VPWR sky130_ef_sc_hd__decap_12
XFILLER_118_165 VGND VGND VPWR VPWR sky130_ef_sc_hd__decap_12
XFILLER_118_121 VGND VGND VPWR VPWR sky130_ef_sc_hd__decap_12
XFILLER_109_69 VGND VGND VPWR VPWR sky130_ef_sc_hd__decap_12
XFILLER_125_57 VGND VGND VPWR VPWR sky130_ef_sc_hd__decap_12
XFILLER_70_177 VGND VGND VPWR VPWR sky130_ef_sc_hd__decap_12
XFILLER_70_133 VGND VGND VPWR VPWR sky130_fd_sc_hd__decap_6
XFILLER_18_77 VGND VGND VPWR VPWR sky130_fd_sc_hd__decap_3
XFILLER_50_53 VGND VGND VPWR VPWR sky130_ef_sc_hd__decap_12
XTAP_509 VGND VPWR sky130_fd_sc_hd__tapvpwrvgnd_1
XFILLER_50_97 VGND VGND VPWR VPWR sky130_ef_sc_hd__decap_12
XFILLER_46_141 VGND VGND VPWR VPWR sky130_ef_sc_hd__decap_12
XFILLER_91_93 VGND VGND VPWR VPWR sky130_ef_sc_hd__decap_12
XFILLER_61_188 VGND VGND VPWR VPWR sky130_fd_sc_hd__fill_2
XFILLER_61_111 VGND VGND VPWR VPWR sky130_fd_sc_hd__fill_1
XFILLER_115_157 VGND VGND VPWR VPWR sky130_fd_sc_hd__decap_8
XFILLER_115_113 VGND VGND VPWR VPWR sky130_ef_sc_hd__decap_12
XFILLER_111_15 VGND VGND VPWR VPWR sky130_ef_sc_hd__decap_12
XFILLER_52_177 VGND VGND VPWR VPWR sky130_ef_sc_hd__decap_12
XFILLER_52_133 VGND VGND VPWR VPWR sky130_fd_sc_hd__decap_6
XFILLER_136_67 VGND VGND VPWR VPWR sky130_fd_sc_hd__fill_2
XFILLER_121_149 VGND VGND VPWR VPWR sky130_ef_sc_hd__decap_12
XFILLER_121_105 VGND VGND VPWR VPWR sky130_fd_sc_hd__decap_6
XFILLER_96_27 VGND VGND VPWR VPWR sky130_fd_sc_hd__fill_1
XFILLER_28_141 VGND VGND VPWR VPWR sky130_ef_sc_hd__decap_12
XFILLER_101_81 VGND VGND VPWR VPWR sky130_ef_sc_hd__decap_12
XFILLER_43_111 VGND VGND VPWR VPWR sky130_fd_sc_hd__fill_1
XFILLER_43_188 VGND VGND VPWR VPWR sky130_fd_sc_hd__fill_2
XANTENNA_7 _024_ VGND VGND VPWR VPWR sky130_fd_sc_hd__diode_2
XTAP_317 VGND VPWR sky130_fd_sc_hd__tapvpwrvgnd_1
XTAP_306 VGND VPWR sky130_fd_sc_hd__tapvpwrvgnd_1
XTAP_328 VGND VPWR sky130_fd_sc_hd__tapvpwrvgnd_1
XTAP_339 VGND VPWR sky130_fd_sc_hd__tapvpwrvgnd_1
XFILLER_34_155 VGND VGND VPWR VPWR sky130_fd_sc_hd__decap_4
XFILLER_34_188 VGND VGND VPWR VPWR sky130_fd_sc_hd__fill_2
XFILLER_106_15 VGND VGND VPWR VPWR sky130_ef_sc_hd__decap_12
XFILLER_103_149 VGND VGND VPWR VPWR sky130_ef_sc_hd__decap_12
XFILLER_103_105 VGND VGND VPWR VPWR sky130_fd_sc_hd__decap_6
XFILLER_82_29 VGND VGND VPWR VPWR sky130_ef_sc_hd__decap_12
XFILLER_15_23 VGND VGND VPWR VPWR sky130_ef_sc_hd__decap_12
XFILLER_25_111 VGND VGND VPWR VPWR sky130_fd_sc_hd__fill_1
XFILLER_25_188 VGND VGND VPWR VPWR sky130_fd_sc_hd__fill_2
XFILLER_31_55 VGND VGND VPWR VPWR sky130_fd_sc_hd__fill_1
XFILLER_103_3 VGND VGND VPWR VPWR sky130_ef_sc_hd__decap_12
Xoutput9 net9 VGND VGND VPWR VPWR data_reg[14] sky130_fd_sc_hd__buf_2
Xoutput11 net11 VGND VGND VPWR VPWR data_reg[16] sky130_fd_sc_hd__buf_2
Xoutput44 net44 VGND VGND VPWR VPWR serial_out sky130_fd_sc_hd__buf_2
Xoutput33 net33 VGND VGND VPWR VPWR data_reg[36] sky130_fd_sc_hd__buf_2
Xoutput22 net22 VGND VGND VPWR VPWR data_reg[26] sky130_fd_sc_hd__buf_2
XFILLER_56_85 VGND VGND VPWR VPWR sky130_ef_sc_hd__decap_12
XFILLER_56_41 VGND VGND VPWR VPWR sky130_ef_sc_hd__decap_12
XFILLER_16_133 VGND VGND VPWR VPWR sky130_fd_sc_hd__decap_6
XFILLER_16_155 VGND VGND VPWR VPWR sky130_ef_sc_hd__decap_12
XPHY_194 VGND VGND VPWR VPWR sky130_fd_sc_hd__decap_3
XPHY_183 VGND VGND VPWR VPWR sky130_fd_sc_hd__decap_3
XPHY_172 VGND VGND VPWR VPWR sky130_fd_sc_hd__decap_3
XPHY_161 VGND VGND VPWR VPWR sky130_fd_sc_hd__decap_3
XPHY_150 VGND VGND VPWR VPWR sky130_fd_sc_hd__decap_3
XFILLER_31_169 VGND VGND VPWR VPWR sky130_ef_sc_hd__decap_12
XTAP_670 VGND VPWR sky130_fd_sc_hd__tapvpwrvgnd_1
XFILLER_117_69 VGND VGND VPWR VPWR sky130_ef_sc_hd__decap_12
XFILLER_89_169 VGND VGND VPWR VPWR sky130_ef_sc_hd__decap_12
XFILLER_89_125 VGND VGND VPWR VPWR sky130_ef_sc_hd__decap_12
XTAP_692 VGND VPWR sky130_fd_sc_hd__tapvpwrvgnd_1
XTAP_681 VGND VPWR sky130_fd_sc_hd__tapvpwrvgnd_1
XFILLER_133_57 VGND VGND VPWR VPWR sky130_fd_sc_hd__fill_2
XFILLER_97_180 VGND VGND VPWR VPWR sky130_fd_sc_hd__decap_8
X_291_ net27 shift_reg\[30\] _144_ VGND VGND VPWR VPWR _145_ sky130_fd_sc_hd__mux2_1
XFILLER_13_125 VGND VGND VPWR VPWR sky130_ef_sc_hd__decap_12
XFILLER_13_169 VGND VGND VPWR VPWR sky130_ef_sc_hd__decap_12
X_360_ clk _024_ VGND VGND VPWR VPWR shift_reg\[36\] sky130_fd_sc_hd__dfxtp_2
XFILLER_107_80 VGND VGND VPWR VPWR sky130_fd_sc_hd__fill_2
XFILLER_3_15 VGND VGND VPWR VPWR sky130_ef_sc_hd__decap_12
XFILLER_66_3 VGND VGND VPWR VPWR sky130_ef_sc_hd__decap_12
XFILLER_103_27 VGND VGND VPWR VPWR sky130_ef_sc_hd__decap_12
XFILLER_86_139 VGND VGND VPWR VPWR sky130_fd_sc_hd__fill_1
XFILLER_10_139 VGND VGND VPWR VPWR sky130_fd_sc_hd__fill_1
XFILLER_92_109 VGND VGND VPWR VPWR sky130_ef_sc_hd__decap_12
X_412_ clk _076_ VGND VGND VPWR VPWR shift_reg\[8\] sky130_fd_sc_hd__dfxtp_2
XFILLER_53_20 VGND VGND VPWR VPWR sky130_ef_sc_hd__decap_12
X_343_ clk _007_ VGND VGND VPWR VPWR shift_reg\[19\] sky130_fd_sc_hd__dfxtp_2
XFILLER_5_110 VGND VGND VPWR VPWR sky130_fd_sc_hd__fill_2
X_274_ net18 shift_reg\[22\] _133_ VGND VGND VPWR VPWR _136_ sky130_fd_sc_hd__mux2_2
XFILLER_78_83 VGND VGND VPWR VPWR sky130_fd_sc_hd__fill_1
XFILLER_68_139 VGND VGND VPWR VPWR sky130_fd_sc_hd__fill_1
XFILLER_130_58 VGND VGND VPWR VPWR sky130_fd_sc_hd__fill_2
XFILLER_130_47 VGND VGND VPWR VPWR sky130_fd_sc_hd__fill_1
XFILLER_82_153 VGND VGND VPWR VPWR sky130_ef_sc_hd__decap_12
XFILLER_67_161 VGND VGND VPWR VPWR sky130_fd_sc_hd__decap_6
XFILLER_136_111 VGND VGND VPWR VPWR sky130_fd_sc_hd__fill_2
XFILLER_99_38 VGND VGND VPWR VPWR sky130_ef_sc_hd__decap_12
XFILLER_99_16 VGND VGND VPWR VPWR sky130_fd_sc_hd__fill_2
XFILLER_90_29 VGND VGND VPWR VPWR sky130_fd_sc_hd__fill_2
XFILLER_136_188 VGND VGND VPWR VPWR sky130_fd_sc_hd__fill_2
XFILLER_136_166 VGND VGND VPWR VPWR sky130_fd_sc_hd__decap_8
XFILLER_58_161 VGND VGND VPWR VPWR sky130_fd_sc_hd__fill_2
XFILLER_0_27 VGND VGND VPWR VPWR sky130_fd_sc_hd__fill_1
XFILLER_48_97 VGND VGND VPWR VPWR sky130_ef_sc_hd__decap_12
XFILLER_64_85 VGND VGND VPWR VPWR sky130_ef_sc_hd__decap_12
XFILLER_64_41 VGND VGND VPWR VPWR sky130_ef_sc_hd__decap_12
X_326_ shift_reg\[7\] shift_reg\[8\] _157_ VGND VGND VPWR VPWR _163_ sky130_fd_sc_hd__mux2_1
XFILLER_9_69 VGND VGND VPWR VPWR sky130_ef_sc_hd__decap_12
XFILLER_127_188 VGND VGND VPWR VPWR sky130_fd_sc_hd__fill_2
XFILLER_127_111 VGND VGND VPWR VPWR sky130_fd_sc_hd__fill_1
X_257_ net9 shift_reg\[14\] _122_ VGND VGND VPWR VPWR _127_ sky130_fd_sc_hd__mux2_1
X_188_ _090_ VGND VGND VPWR VPWR _009_ sky130_fd_sc_hd__clkbuf_1
XFILLER_56_109 VGND VGND VPWR VPWR sky130_ef_sc_hd__decap_12
XFILLER_29_3 VGND VGND VPWR VPWR sky130_ef_sc_hd__decap_12
XFILLER_64_153 VGND VGND VPWR VPWR sky130_ef_sc_hd__decap_12
XFILLER_49_161 VGND VGND VPWR VPWR sky130_fd_sc_hd__decap_6
XFILLER_133_169 VGND VGND VPWR VPWR sky130_fd_sc_hd__fill_2
XFILLER_133_125 VGND VGND VPWR VPWR sky130_ef_sc_hd__decap_12
XFILLER_118_177 VGND VGND VPWR VPWR sky130_ef_sc_hd__decap_12
XFILLER_118_133 VGND VGND VPWR VPWR sky130_fd_sc_hd__decap_6
XFILLER_109_15 VGND VGND VPWR VPWR sky130_ef_sc_hd__decap_12
XFILLER_125_69 VGND VGND VPWR VPWR sky130_ef_sc_hd__decap_12
XFILLER_70_189 VGND VGND VPWR VPWR sky130_fd_sc_hd__fill_1
XFILLER_133_3 VGND VGND VPWR VPWR sky130_ef_sc_hd__decap_12
XFILLER_109_111 VGND VGND VPWR VPWR sky130_fd_sc_hd__fill_1
XFILLER_50_65 VGND VGND VPWR VPWR sky130_ef_sc_hd__decap_12
XFILLER_38_109 VGND VGND VPWR VPWR sky130_ef_sc_hd__decap_12
XFILLER_75_51 VGND VGND VPWR VPWR sky130_fd_sc_hd__decap_4
XFILLER_15_9 VGND VGND VPWR VPWR sky130_fd_sc_hd__fill_2
XFILLER_46_153 VGND VGND VPWR VPWR sky130_ef_sc_hd__decap_12
X_309_ net36 shift_reg\[39\] _144_ VGND VGND VPWR VPWR _154_ sky130_fd_sc_hd__mux2_1
XFILLER_61_167 VGND VGND VPWR VPWR sky130_fd_sc_hd__fill_1
XFILLER_115_169 VGND VGND VPWR VPWR sky130_ef_sc_hd__decap_12
XFILLER_115_125 VGND VGND VPWR VPWR sky130_fd_sc_hd__decap_4
XFILLER_111_27 VGND VGND VPWR VPWR sky130_ef_sc_hd__decap_12
XFILLER_52_189 VGND VGND VPWR VPWR sky130_fd_sc_hd__fill_1
XFILLER_1_81 VGND VGND VPWR VPWR sky130_ef_sc_hd__decap_12
XFILLER_28_120 VGND VGND VPWR VPWR sky130_fd_sc_hd__decap_8
XFILLER_28_153 VGND VGND VPWR VPWR sky130_ef_sc_hd__decap_12
XFILLER_29_55 VGND VGND VPWR VPWR sky130_fd_sc_hd__fill_1
XFILLER_101_93 VGND VGND VPWR VPWR sky130_ef_sc_hd__decap_12
XFILLER_43_167 VGND VGND VPWR VPWR sky130_fd_sc_hd__fill_1
XANTENNA_8 _024_ VGND VGND VPWR VPWR sky130_fd_sc_hd__diode_2
XFILLER_6_15 VGND VGND VPWR VPWR sky130_ef_sc_hd__decap_12
XFILLER_120_183 VGND VGND VPWR VPWR sky130_fd_sc_hd__fill_1
XFILLER_112_139 VGND VGND VPWR VPWR sky130_fd_sc_hd__fill_1
XTAP_307 VGND VPWR sky130_fd_sc_hd__tapvpwrvgnd_1
XTAP_318 VGND VPWR sky130_fd_sc_hd__tapvpwrvgnd_1
XTAP_329 VGND VPWR sky130_fd_sc_hd__tapvpwrvgnd_1
XFILLER_96_3 VGND VGND VPWR VPWR sky130_ef_sc_hd__decap_12
XFILLER_34_145 VGND VGND VPWR VPWR sky130_fd_sc_hd__fill_1
XFILLER_106_27 VGND VGND VPWR VPWR sky130_fd_sc_hd__fill_1
XFILLER_122_15 VGND VGND VPWR VPWR sky130_ef_sc_hd__decap_12
XFILLER_111_161 VGND VGND VPWR VPWR sky130_fd_sc_hd__decap_6
XFILLER_15_13 VGND VGND VPWR VPWR sky130_fd_sc_hd__fill_2
XFILLER_15_35 VGND VGND VPWR VPWR sky130_ef_sc_hd__decap_12
XFILLER_15_57 VGND VGND VPWR VPWR sky130_ef_sc_hd__decap_12
XFILLER_25_167 VGND VGND VPWR VPWR sky130_fd_sc_hd__fill_1
Xoutput12 net12 VGND VGND VPWR VPWR data_reg[17] sky130_fd_sc_hd__buf_2
Xoutput34 net34 VGND VGND VPWR VPWR data_reg[37] sky130_fd_sc_hd__buf_2
Xoutput23 net23 VGND VGND VPWR VPWR data_reg[27] sky130_fd_sc_hd__buf_2
XFILLER_72_41 VGND VGND VPWR VPWR sky130_fd_sc_hd__decap_8
XFILLER_56_97 VGND VGND VPWR VPWR sky130_ef_sc_hd__decap_12
XFILLER_56_53 VGND VGND VPWR VPWR sky130_ef_sc_hd__decap_12
XFILLER_16_167 VGND VGND VPWR VPWR sky130_ef_sc_hd__decap_12
XPHY_195 VGND VGND VPWR VPWR sky130_fd_sc_hd__decap_3
XPHY_184 VGND VGND VPWR VPWR sky130_fd_sc_hd__decap_3
XPHY_173 VGND VGND VPWR VPWR sky130_fd_sc_hd__decap_3
XPHY_162 VGND VGND VPWR VPWR sky130_fd_sc_hd__decap_3
XPHY_151 VGND VGND VPWR VPWR sky130_fd_sc_hd__decap_3
XFILLER_72_85 VGND VGND VPWR VPWR sky130_ef_sc_hd__decap_12
XPHY_140 VGND VGND VPWR VPWR sky130_fd_sc_hd__decap_3
XFILLER_100_109 VGND VGND VPWR VPWR sky130_ef_sc_hd__decap_12
XFILLER_11_3 VGND VGND VPWR VPWR sky130_fd_sc_hd__decap_6
XFILLER_117_15 VGND VGND VPWR VPWR sky130_ef_sc_hd__decap_12
XTAP_693 VGND VPWR sky130_fd_sc_hd__tapvpwrvgnd_1
XTAP_682 VGND VPWR sky130_fd_sc_hd__tapvpwrvgnd_1
XTAP_671 VGND VPWR sky130_fd_sc_hd__tapvpwrvgnd_1
XTAP_660 VGND VPWR sky130_fd_sc_hd__tapvpwrvgnd_1
XFILLER_89_137 VGND VGND VPWR VPWR sky130_ef_sc_hd__decap_12
XFILLER_26_56 VGND VGND VPWR VPWR sky130_fd_sc_hd__decap_8
XFILLER_9_119 VGND VGND VPWR VPWR sky130_ef_sc_hd__decap_12
XFILLER_13_137 VGND VGND VPWR VPWR sky130_ef_sc_hd__decap_12
XFILLER_21_181 VGND VGND VPWR VPWR sky130_fd_sc_hd__decap_8
X_290_ net1 VGND VGND VPWR VPWR _144_ sky130_fd_sc_hd__buf_6
XFILLER_3_27 VGND VGND VPWR VPWR sky130_ef_sc_hd__decap_12
XFILLER_88_170 VGND VGND VPWR VPWR sky130_ef_sc_hd__decap_12
XFILLER_59_3 VGND VGND VPWR VPWR sky130_ef_sc_hd__decap_12
XFILLER_8_141 VGND VGND VPWR VPWR sky130_ef_sc_hd__decap_12
XFILLER_79_181 VGND VGND VPWR VPWR sky130_fd_sc_hd__decap_8
XFILLER_103_39 VGND VGND VPWR VPWR sky130_ef_sc_hd__decap_12
XFILLER_10_129 VGND VGND VPWR VPWR sky130_fd_sc_hd__fill_2
XFILLER_88_29 VGND VGND VPWR VPWR sky130_ef_sc_hd__decap_12
XTAP_490 VGND VPWR sky130_fd_sc_hd__tapvpwrvgnd_1
XFILLER_37_55 VGND VGND VPWR VPWR sky130_fd_sc_hd__fill_1