* Netlist (handwritten) for adc_wrapper.mag
* Harald Pretl, IIC, JKU, 2023

*.include /foss/designs/finaltest/lvsf/uwb_transmitter.spice
*.include /foss/designs/finaltest/lvsf/shiftreg.spice


.subckt uwb_wrapper dvdd avdd vss sclk sdo sdi sload sen 
+ rfoutp rfoutn utrig osct1ext osct2ext pat1ext

XSR0 vss dvdd sclk uwbcfg[0] uwbcfg[10] uwbcfg[11] uwbcfg[12]
+ uwbcfg[13] uwbcfg[14] uwbcfg[15] uwbcfg[16] uwbcfg[17] uwbcfg[18] uwbcfg[19]
+ uwbcfg[1] uwbcfg[20] uwbcfg[21] uwbcfg[22] uwbcfg[23] uwbcfg[24] uwbcfg[25]
+ uwbcfg[26] uwbcfg[27] uwbcfg[28] uwbcfg[29] uwbcfg[2] uwbcfg[30] uwbcfg[31]
+ uwbcfg[32] uwbcfg[33] uwbcfg[34] uwbcfg[35] uwbcfg[36] uwbcfg[37] uwbcfg[38]
+ uwbcfg[39] uwbcfg[3] uwbcfg[4] uwbcfg[5] uwbcfg[6] uwbcfg[7] uwbcfg[8]
+ uwbcfg[9] sload sdi sdo sen shiftreg

XUTX0 dvdd avdd utrig rfoutp rfoutn vss uwbcfg[39] uwbcfg[38]
+ uwbcfg[37] uwbcfg[36] uwbcfg[35] uwbcfg[34] uwbcfg[0] uwbcfg[1] uwbcfg[2] uwbcfg[3] uwbcfg[4]
+ uwbcfg[5] uwbcfg[23] uwbcfg[22] uwbcfg[21] uwbcfg[20] uwbcfg[11] uwbcfg[10] uwbcfg[9] uwbcfg[8]
+ uwbcfg[7] uwbcfg[6] uwbcfg[12] uwbcfg[13] uwbcfg[27] uwbcfg[26] uwbcfg[25] uwbcfg[24]
+ uwbcfg[16] uwbcfg[18] uwbcfg[15] uwbcfg[17] uwbcfg[19]  uwbcfg[14] pat1ext
+ osct1ext osct2ext uwb_transmitter


.ends



** uwb transmitter

** sch_path: /foss/designs/uwb_transmitter/lvsf/uwb_transmitter.sch
.subckt uwb_transmitter vdd1v8 vdd1v0 in_uwb outp_uwb outn_uwb vss osc_tune[5] osc_tune[4]
+ osc_tune[3] osc_tune[2] osc_tune[1] osc_tune[0] pa_tune[5] pa_tune[4] pa_tune[3] pa_tune[2] pa_tune[1]
+ pa_tune[0] pa_gain[3] pa_gain[2] pa_gain[1] pa_gain[0] delayline[5] delayline[4] delayline[3] delayline[2]
+ delayline[1] delayline[0] trigger_line[1] trigger_line[0] osc_gain[3] osc_gain[2] osc_gain[1] osc_gain[0]
+ pa_trig1_en osc_trig1_en osc_trig2_en pa_trig1_test_en osc_trig1_test_en osc_trig2_test_en pa_trig1_test
+ osc_trig1_test osc_trig2_test
*.PININFO vdd1v8:I vdd1v0:I in_uwb:I outp_uwb:O outn_uwb:O vss:I osc_tune[5:0]:I pa_tune[5:0]:I
*+ pa_gain[3:0]:I delayline[5:0]:I trigger_line[1:0]:I osc_gain[3:0]:I pa_trig1_en:I osc_trig1_en:I osc_trig2_en:I
*+ pa_trig1_test_en:I osc_trig1_test_en:I osc_trig2_test_en:I pa_trig1_test:B osc_trig1_test:B osc_trig2_test:B
x2 in_uwb vdd1v8 vss delayline[5] delayline[4] delayline[3] delayline[2] delayline[1] delayline[0]
+ trigger_line[1] trigger_line[0] net7 net6 startup
x9 vdd1v8 vss osc_trig1_test net7 osc_trig1_test_en osc_trig1_en net4 mux21
x10 vdd1v8 vss pa_trig1_test net7 pa_trig1_test_en pa_trig1_en net3 mux21
x11 vdd1v8 vss osc_trig2_test net6 osc_trig2_test_en osc_trig2_en net5 mux21
x1 vdd1v0 vss OSCTRG1[3] OSCTRG1[2] OSCTRG1[1] OSCTRG1[0] OSCTRG2[3] OSCTRG2[2] OSCTRG2[1]
+ OSCTRG2[0] OSCOUTP OSCOUTN osc_total
x4 OSCOUTP OSCOUTN vss osc_tune[5] osc_tune[4] osc_tune[3] osc_tune[2] osc_tune[1] osc_tune[0]
+ capbank
x5 net2 net1 vss pa_tune[5] pa_tune[4] pa_tune[3] pa_tune[2] pa_tune[1] pa_tune[0] capbank
x3 vdd1v0 vss OSCOUTP OSCOUTN PATrig[3] PATrig[2] PATrig[1] PATrig[0] net2 net1 outp_uwb outn_uwb
+ pa_total
x6 net4 vdd1v8 vss osc_gain[3] osc_gain[2] osc_gain[1] osc_gain[0] OSCTRG1[3] OSCTRG1[2] OSCTRG1[1]
+ OSCTRG1[0] gc
x7 net3 vdd1v8 vss pa_gain[3] pa_gain[2] pa_gain[1] pa_gain[0] PATrig[3] PATrig[2] PATrig[1]
+ PATrig[0] gc
x8 net5 vdd1v8 vss osc_gain[3] osc_gain[2] osc_gain[1] osc_gain[0] OSCTRG2[3] OSCTRG2[2] OSCTRG2[1]
+ OSCTRG2[0] gc
x12 net8 vss vss net9[5] net9[4] net9[3] net9[2] net9[1] net9[0] net10[1] net10[0] vss vss Startup
*x13[211] vdd1v0 vss vdd1v0 vss vss adc_noise_decoup_cell1
*x13[210] vdd1v0 vss vdd1v0 vss vss adc_noise_decoup_cell1
*x13[209] vdd1v0 vss vdd1v0 vss vss adc_noise_decoup_cell1
*x13[208] vdd1v0 vss vdd1v0 vss vss adc_noise_decoup_cell1
*x13[207] vdd1v0 vss vdd1v0 vss vss adc_noise_decoup_cell1
*x13[206] vdd1v0 vss vdd1v0 vss vss adc_noise_decoup_cell1
*x13[205] vdd1v0 vss vdd1v0 vss vss adc_noise_decoup_cell1
*x13[204] vdd1v0 vss vdd1v0 vss vss adc_noise_decoup_cell1
*x13[203] vdd1v0 vss vdd1v0 vss vss adc_noise_decoup_cell1
*x13[202] vdd1v0 vss vdd1v0 vss vss adc_noise_decoup_cell1
*x13[201] vdd1v0 vss vdd1v0 vss vss adc_noise_decoup_cell1
*x13[200] vdd1v0 vss vdd1v0 vss vss adc_noise_decoup_cell1
x13[199] vdd1v0 vss vdd1v0 vss vss adc_noise_decoup_cell1
x13[198] vdd1v0 vss vdd1v0 vss vss adc_noise_decoup_cell1
x13[197] vdd1v0 vss vdd1v0 vss vss adc_noise_decoup_cell1
x13[196] vdd1v0 vss vdd1v0 vss vss adc_noise_decoup_cell1
x13[195] vdd1v0 vss vdd1v0 vss vss adc_noise_decoup_cell1
x13[194] vdd1v0 vss vdd1v0 vss vss adc_noise_decoup_cell1
x13[193] vdd1v0 vss vdd1v0 vss vss adc_noise_decoup_cell1
x13[192] vdd1v0 vss vdd1v0 vss vss adc_noise_decoup_cell1
x13[191] vdd1v0 vss vdd1v0 vss vss adc_noise_decoup_cell1
x13[190] vdd1v0 vss vdd1v0 vss vss adc_noise_decoup_cell1
x13[189] vdd1v0 vss vdd1v0 vss vss adc_noise_decoup_cell1
x13[188] vdd1v0 vss vdd1v0 vss vss adc_noise_decoup_cell1
x13[187] vdd1v0 vss vdd1v0 vss vss adc_noise_decoup_cell1
x13[186] vdd1v0 vss vdd1v0 vss vss adc_noise_decoup_cell1
x13[185] vdd1v0 vss vdd1v0 vss vss adc_noise_decoup_cell1
x13[184] vdd1v0 vss vdd1v0 vss vss adc_noise_decoup_cell1
x13[183] vdd1v0 vss vdd1v0 vss vss adc_noise_decoup_cell1
x13[182] vdd1v0 vss vdd1v0 vss vss adc_noise_decoup_cell1
x13[181] vdd1v0 vss vdd1v0 vss vss adc_noise_decoup_cell1
x13[180] vdd1v0 vss vdd1v0 vss vss adc_noise_decoup_cell1
x13[179] vdd1v0 vss vdd1v0 vss vss adc_noise_decoup_cell1
x13[178] vdd1v0 vss vdd1v0 vss vss adc_noise_decoup_cell1
x13[177] vdd1v0 vss vdd1v0 vss vss adc_noise_decoup_cell1
x13[176] vdd1v0 vss vdd1v0 vss vss adc_noise_decoup_cell1
x13[175] vdd1v0 vss vdd1v0 vss vss adc_noise_decoup_cell1
x13[174] vdd1v0 vss vdd1v0 vss vss adc_noise_decoup_cell1
x13[173] vdd1v0 vss vdd1v0 vss vss adc_noise_decoup_cell1
x13[172] vdd1v0 vss vdd1v0 vss vss adc_noise_decoup_cell1
x13[171] vdd1v0 vss vdd1v0 vss vss adc_noise_decoup_cell1
x13[170] vdd1v0 vss vdd1v0 vss vss adc_noise_decoup_cell1
x13[169] vdd1v0 vss vdd1v0 vss vss adc_noise_decoup_cell1
x13[168] vdd1v0 vss vdd1v0 vss vss adc_noise_decoup_cell1
x13[167] vdd1v0 vss vdd1v0 vss vss adc_noise_decoup_cell1
x13[166] vdd1v0 vss vdd1v0 vss vss adc_noise_decoup_cell1
x13[165] vdd1v0 vss vdd1v0 vss vss adc_noise_decoup_cell1
x13[164] vdd1v0 vss vdd1v0 vss vss adc_noise_decoup_cell1
x13[163] vdd1v0 vss vdd1v0 vss vss adc_noise_decoup_cell1
x13[162] vdd1v0 vss vdd1v0 vss vss adc_noise_decoup_cell1
x13[161] vdd1v0 vss vdd1v0 vss vss adc_noise_decoup_cell1
x13[160] vdd1v0 vss vdd1v0 vss vss adc_noise_decoup_cell1
x13[159] vdd1v0 vss vdd1v0 vss vss adc_noise_decoup_cell1
x13[158] vdd1v0 vss vdd1v0 vss vss adc_noise_decoup_cell1
x13[157] vdd1v0 vss vdd1v0 vss vss adc_noise_decoup_cell1
x13[156] vdd1v0 vss vdd1v0 vss vss adc_noise_decoup_cell1
x13[155] vdd1v0 vss vdd1v0 vss vss adc_noise_decoup_cell1
x13[154] vdd1v0 vss vdd1v0 vss vss adc_noise_decoup_cell1
x13[153] vdd1v0 vss vdd1v0 vss vss adc_noise_decoup_cell1
x13[152] vdd1v0 vss vdd1v0 vss vss adc_noise_decoup_cell1
x13[151] vdd1v0 vss vdd1v0 vss vss adc_noise_decoup_cell1
x13[150] vdd1v0 vss vdd1v0 vss vss adc_noise_decoup_cell1
x13[149] vdd1v0 vss vdd1v0 vss vss adc_noise_decoup_cell1
x13[148] vdd1v0 vss vdd1v0 vss vss adc_noise_decoup_cell1
x13[147] vdd1v0 vss vdd1v0 vss vss adc_noise_decoup_cell1
x13[146] vdd1v0 vss vdd1v0 vss vss adc_noise_decoup_cell1
x13[145] vdd1v0 vss vdd1v0 vss vss adc_noise_decoup_cell1
x13[144] vdd1v0 vss vdd1v0 vss vss adc_noise_decoup_cell1
x13[143] vdd1v0 vss vdd1v0 vss vss adc_noise_decoup_cell1
x13[142] vdd1v0 vss vdd1v0 vss vss adc_noise_decoup_cell1
x13[141] vdd1v0 vss vdd1v0 vss vss adc_noise_decoup_cell1
x13[140] vdd1v0 vss vdd1v0 vss vss adc_noise_decoup_cell1
x13[139] vdd1v0 vss vdd1v0 vss vss adc_noise_decoup_cell1
x13[138] vdd1v0 vss vdd1v0 vss vss adc_noise_decoup_cell1
x13[137] vdd1v0 vss vdd1v0 vss vss adc_noise_decoup_cell1
x13[136] vdd1v0 vss vdd1v0 vss vss adc_noise_decoup_cell1
x13[135] vdd1v0 vss vdd1v0 vss vss adc_noise_decoup_cell1
x13[134] vdd1v0 vss vdd1v0 vss vss adc_noise_decoup_cell1
x13[133] vdd1v0 vss vdd1v0 vss vss adc_noise_decoup_cell1
x13[132] vdd1v0 vss vdd1v0 vss vss adc_noise_decoup_cell1
x13[131] vdd1v0 vss vdd1v0 vss vss adc_noise_decoup_cell1
x13[130] vdd1v0 vss vdd1v0 vss vss adc_noise_decoup_cell1
x13[129] vdd1v0 vss vdd1v0 vss vss adc_noise_decoup_cell1
x13[128] vdd1v0 vss vdd1v0 vss vss adc_noise_decoup_cell1
x13[127] vdd1v0 vss vdd1v0 vss vss adc_noise_decoup_cell1
x13[126] vdd1v0 vss vdd1v0 vss vss adc_noise_decoup_cell1
x13[125] vdd1v0 vss vdd1v0 vss vss adc_noise_decoup_cell1
x13[124] vdd1v0 vss vdd1v0 vss vss adc_noise_decoup_cell1
x13[123] vdd1v0 vss vdd1v0 vss vss adc_noise_decoup_cell1
x13[122] vdd1v0 vss vdd1v0 vss vss adc_noise_decoup_cell1
x13[121] vdd1v0 vss vdd1v0 vss vss adc_noise_decoup_cell1
x13[120] vdd1v0 vss vdd1v0 vss vss adc_noise_decoup_cell1
x13[119] vdd1v0 vss vdd1v0 vss vss adc_noise_decoup_cell1
x13[118] vdd1v0 vss vdd1v0 vss vss adc_noise_decoup_cell1
x13[117] vdd1v0 vss vdd1v0 vss vss adc_noise_decoup_cell1
x13[116] vdd1v0 vss vdd1v0 vss vss adc_noise_decoup_cell1
x13[115] vdd1v0 vss vdd1v0 vss vss adc_noise_decoup_cell1
x13[114] vdd1v0 vss vdd1v0 vss vss adc_noise_decoup_cell1
x13[113] vdd1v0 vss vdd1v0 vss vss adc_noise_decoup_cell1
x13[112] vdd1v0 vss vdd1v0 vss vss adc_noise_decoup_cell1
x13[111] vdd1v0 vss vdd1v0 vss vss adc_noise_decoup_cell1
x13[110] vdd1v0 vss vdd1v0 vss vss adc_noise_decoup_cell1
x13[109] vdd1v0 vss vdd1v0 vss vss adc_noise_decoup_cell1
x13[108] vdd1v0 vss vdd1v0 vss vss adc_noise_decoup_cell1
x13[107] vdd1v0 vss vdd1v0 vss vss adc_noise_decoup_cell1
x13[106] vdd1v0 vss vdd1v0 vss vss adc_noise_decoup_cell1
x13[105] vdd1v0 vss vdd1v0 vss vss adc_noise_decoup_cell1
x13[104] vdd1v0 vss vdd1v0 vss vss adc_noise_decoup_cell1
x13[103] vdd1v0 vss vdd1v0 vss vss adc_noise_decoup_cell1
x13[102] vdd1v0 vss vdd1v0 vss vss adc_noise_decoup_cell1
x13[101] vdd1v0 vss vdd1v0 vss vss adc_noise_decoup_cell1
x13[100] vdd1v0 vss vdd1v0 vss vss adc_noise_decoup_cell1
x13[99] vdd1v0 vss vdd1v0 vss vss adc_noise_decoup_cell1
x13[98] vdd1v0 vss vdd1v0 vss vss adc_noise_decoup_cell1
x13[97] vdd1v0 vss vdd1v0 vss vss adc_noise_decoup_cell1
x13[96] vdd1v0 vss vdd1v0 vss vss adc_noise_decoup_cell1
x13[95] vdd1v0 vss vdd1v0 vss vss adc_noise_decoup_cell1
x13[94] vdd1v0 vss vdd1v0 vss vss adc_noise_decoup_cell1
x13[93] vdd1v0 vss vdd1v0 vss vss adc_noise_decoup_cell1
x13[92] vdd1v0 vss vdd1v0 vss vss adc_noise_decoup_cell1
x13[91] vdd1v0 vss vdd1v0 vss vss adc_noise_decoup_cell1
x13[90] vdd1v0 vss vdd1v0 vss vss adc_noise_decoup_cell1
x13[89] vdd1v0 vss vdd1v0 vss vss adc_noise_decoup_cell1
x13[88] vdd1v0 vss vdd1v0 vss vss adc_noise_decoup_cell1
x13[87] vdd1v0 vss vdd1v0 vss vss adc_noise_decoup_cell1
x13[86] vdd1v0 vss vdd1v0 vss vss adc_noise_decoup_cell1
x13[85] vdd1v0 vss vdd1v0 vss vss adc_noise_decoup_cell1
x13[84] vdd1v0 vss vdd1v0 vss vss adc_noise_decoup_cell1
x13[83] vdd1v0 vss vdd1v0 vss vss adc_noise_decoup_cell1
x13[82] vdd1v0 vss vdd1v0 vss vss adc_noise_decoup_cell1
x13[81] vdd1v0 vss vdd1v0 vss vss adc_noise_decoup_cell1
x13[80] vdd1v0 vss vdd1v0 vss vss adc_noise_decoup_cell1
x13[79] vdd1v0 vss vdd1v0 vss vss adc_noise_decoup_cell1
x13[78] vdd1v0 vss vdd1v0 vss vss adc_noise_decoup_cell1
x13[77] vdd1v0 vss vdd1v0 vss vss adc_noise_decoup_cell1
x13[76] vdd1v0 vss vdd1v0 vss vss adc_noise_decoup_cell1
x13[75] vdd1v0 vss vdd1v0 vss vss adc_noise_decoup_cell1
x13[74] vdd1v0 vss vdd1v0 vss vss adc_noise_decoup_cell1
x13[73] vdd1v0 vss vdd1v0 vss vss adc_noise_decoup_cell1
x13[72] vdd1v0 vss vdd1v0 vss vss adc_noise_decoup_cell1
x13[71] vdd1v0 vss vdd1v0 vss vss adc_noise_decoup_cell1
x13[70] vdd1v0 vss vdd1v0 vss vss adc_noise_decoup_cell1
x13[69] vdd1v0 vss vdd1v0 vss vss adc_noise_decoup_cell1
x13[68] vdd1v0 vss vdd1v0 vss vss adc_noise_decoup_cell1
x13[67] vdd1v0 vss vdd1v0 vss vss adc_noise_decoup_cell1
x13[66] vdd1v0 vss vdd1v0 vss vss adc_noise_decoup_cell1
x13[65] vdd1v0 vss vdd1v0 vss vss adc_noise_decoup_cell1
x13[64] vdd1v0 vss vdd1v0 vss vss adc_noise_decoup_cell1
x13[63] vdd1v0 vss vdd1v0 vss vss adc_noise_decoup_cell1
x13[62] vdd1v0 vss vdd1v0 vss vss adc_noise_decoup_cell1
x13[61] vdd1v0 vss vdd1v0 vss vss adc_noise_decoup_cell1
x13[60] vdd1v0 vss vdd1v0 vss vss adc_noise_decoup_cell1
x13[59] vdd1v0 vss vdd1v0 vss vss adc_noise_decoup_cell1
x13[58] vdd1v0 vss vdd1v0 vss vss adc_noise_decoup_cell1
x13[57] vdd1v0 vss vdd1v0 vss vss adc_noise_decoup_cell1
x13[56] vdd1v0 vss vdd1v0 vss vss adc_noise_decoup_cell1
x13[55] vdd1v0 vss vdd1v0 vss vss adc_noise_decoup_cell1
x13[54] vdd1v0 vss vdd1v0 vss vss adc_noise_decoup_cell1
x13[53] vdd1v0 vss vdd1v0 vss vss adc_noise_decoup_cell1
x13[52] vdd1v0 vss vdd1v0 vss vss adc_noise_decoup_cell1
x13[51] vdd1v0 vss vdd1v0 vss vss adc_noise_decoup_cell1
x13[50] vdd1v0 vss vdd1v0 vss vss adc_noise_decoup_cell1
x13[49] vdd1v0 vss vdd1v0 vss vss adc_noise_decoup_cell1
x13[48] vdd1v0 vss vdd1v0 vss vss adc_noise_decoup_cell1
x13[47] vdd1v0 vss vdd1v0 vss vss adc_noise_decoup_cell1
x13[46] vdd1v0 vss vdd1v0 vss vss adc_noise_decoup_cell1
x13[45] vdd1v0 vss vdd1v0 vss vss adc_noise_decoup_cell1
x13[44] vdd1v0 vss vdd1v0 vss vss adc_noise_decoup_cell1
x13[43] vdd1v0 vss vdd1v0 vss vss adc_noise_decoup_cell1
x13[42] vdd1v0 vss vdd1v0 vss vss adc_noise_decoup_cell1
x13[41] vdd1v0 vss vdd1v0 vss vss adc_noise_decoup_cell1
x13[40] vdd1v0 vss vdd1v0 vss vss adc_noise_decoup_cell1
x13[39] vdd1v0 vss vdd1v0 vss vss adc_noise_decoup_cell1
x13[38] vdd1v0 vss vdd1v0 vss vss adc_noise_decoup_cell1
x13[37] vdd1v0 vss vdd1v0 vss vss adc_noise_decoup_cell1
x13[36] vdd1v0 vss vdd1v0 vss vss adc_noise_decoup_cell1
x13[35] vdd1v0 vss vdd1v0 vss vss adc_noise_decoup_cell1
x13[34] vdd1v0 vss vdd1v0 vss vss adc_noise_decoup_cell1
x13[33] vdd1v0 vss vdd1v0 vss vss adc_noise_decoup_cell1
x13[32] vdd1v0 vss vdd1v0 vss vss adc_noise_decoup_cell1
x13[31] vdd1v0 vss vdd1v0 vss vss adc_noise_decoup_cell1
x13[30] vdd1v0 vss vdd1v0 vss vss adc_noise_decoup_cell1
x13[29] vdd1v0 vss vdd1v0 vss vss adc_noise_decoup_cell1
x13[28] vdd1v0 vss vdd1v0 vss vss adc_noise_decoup_cell1
x13[27] vdd1v0 vss vdd1v0 vss vss adc_noise_decoup_cell1
x13[26] vdd1v0 vss vdd1v0 vss vss adc_noise_decoup_cell1
x13[25] vdd1v0 vss vdd1v0 vss vss adc_noise_decoup_cell1
x13[24] vdd1v0 vss vdd1v0 vss vss adc_noise_decoup_cell1
x13[23] vdd1v0 vss vdd1v0 vss vss adc_noise_decoup_cell1
x13[22] vdd1v0 vss vdd1v0 vss vss adc_noise_decoup_cell1
x13[21] vdd1v0 vss vdd1v0 vss vss adc_noise_decoup_cell1
x13[20] vdd1v0 vss vdd1v0 vss vss adc_noise_decoup_cell1
x13[19] vdd1v0 vss vdd1v0 vss vss adc_noise_decoup_cell1
x13[18] vdd1v0 vss vdd1v0 vss vss adc_noise_decoup_cell1
x13[17] vdd1v0 vss vdd1v0 vss vss adc_noise_decoup_cell1
x13[16] vdd1v0 vss vdd1v0 vss vss adc_noise_decoup_cell1
x13[15] vdd1v0 vss vdd1v0 vss vss adc_noise_decoup_cell1
x13[14] vdd1v0 vss vdd1v0 vss vss adc_noise_decoup_cell1
x13[13] vdd1v0 vss vdd1v0 vss vss adc_noise_decoup_cell1
x13[12] vdd1v0 vss vdd1v0 vss vss adc_noise_decoup_cell1
x13[11] vdd1v0 vss vdd1v0 vss vss adc_noise_decoup_cell1
x13[10] vdd1v0 vss vdd1v0 vss vss adc_noise_decoup_cell1
x13[9] vdd1v0 vss vdd1v0 vss vss adc_noise_decoup_cell1
x13[8] vdd1v0 vss vdd1v0 vss vss adc_noise_decoup_cell1
x13[7] vdd1v0 vss vdd1v0 vss vss adc_noise_decoup_cell1
x13[6] vdd1v0 vss vdd1v0 vss vss adc_noise_decoup_cell1
x13[5] vdd1v0 vss vdd1v0 vss vss adc_noise_decoup_cell1
x13[4] vdd1v0 vss vdd1v0 vss vss adc_noise_decoup_cell1
x13[3] vdd1v0 vss vdd1v0 vss vss adc_noise_decoup_cell1
x13[2] vdd1v0 vss vdd1v0 vss vss adc_noise_decoup_cell1
x13[1] vdd1v0 vss vdd1v0 vss vss adc_noise_decoup_cell1
x13[0] vdd1v0 vss vdd1v0 vss vss adc_noise_decoup_cell1
**** begin user architecture code

**** end user architecture code
.ends

* expanding   symbol:  startup.sym # of pins=7
** sym_path: /foss/designs/uwb_transmitter/lvsf/Startup.sym
** sch_path: /foss/designs/uwb_transmitter/lvsf/Startup.sch
.subckt startup uwb_trigger vdd_startup vss_startup delay_line[5] delay_line[4] delay_line[3]
+ delay_line[2] delay_line[1] delay_line[0] trigger_line[1] trigger_line[0] osc_trigger1 osc_trigger2
*.PININFO vdd_startup:I vss_startup:I uwb_trigger:I osc_trigger2:O osc_trigger1:O delay_line[5:0]:I
*+ trigger_line[1:0]:I
XM10 net1 vtrigger_line1 vdd_startup vdd_startup sky130_fd_pr__pfet_01v8 L=1 W=1.5 nf=1 ad='int((nf+1)/2) * W/nf * 0.29'
+ as='int((nf+2)/2) * W/nf * 0.29' pd='2*int((nf+1)/2) * (W/nf + 0.29)' ps='2*int((nf+2)/2) * (W/nf + 0.29)'
+ nrd='0.29 / W' nrs='0.29 / W' sa=0 sb=0 sd=0 mult=1 m=1
XM23 net1 vtrigger_line1 vss_startup vss_startup sky130_fd_pr__nfet_01v8 L=4 W=0.5 nf=1 ad='int((nf+1)/2) * W/nf * 0.29'
+ as='int((nf+2)/2) * W/nf * 0.29' pd='2*int((nf+1)/2) * (W/nf + 0.29)' ps='2*int((nf+2)/2) * (W/nf + 0.29)'
+ nrd='0.29 / W' nrs='0.29 / W' sa=0 sb=0 sd=0 mult=1 m=1
XM27 vtrigger_line2 net1 net2 vdd_startup sky130_fd_pr__pfet_01v8 L=0.15 W=1 nf=1 ad='int((nf+1)/2) * W/nf * 0.29'
+ as='int((nf+2)/2) * W/nf * 0.29' pd='2*int((nf+1)/2) * (W/nf + 0.29)' ps='2*int((nf+2)/2) * (W/nf + 0.29)'
+ nrd='0.29 / W' nrs='0.29 / W' sa=0 sb=0 sd=0 mult=1 m=1
XM28 net2 net1 vdd_startup vdd_startup sky130_fd_pr__pfet_01v8 L=0.15 W=1 nf=1 ad='int((nf+1)/2) * W/nf * 0.29'
+ as='int((nf+2)/2) * W/nf * 0.29' pd='2*int((nf+1)/2) * (W/nf + 0.29)' ps='2*int((nf+2)/2) * (W/nf + 0.29)'
+ nrd='0.29 / W' nrs='0.29 / W' sa=0 sb=0 sd=0 mult=1 m=1
XM29 vtrigger_line2 net1 net3 vss_startup sky130_fd_pr__nfet_01v8 L=0.15 W=0.5 nf=1 ad='int((nf+1)/2) * W/nf * 0.29'
+ as='int((nf+2)/2) * W/nf * 0.29' pd='2*int((nf+1)/2) * (W/nf + 0.29)' ps='2*int((nf+2)/2) * (W/nf + 0.29)'
+ nrd='0.29 / W' nrs='0.29 / W' sa=0 sb=0 sd=0 mult=1 m=1
XM30 net3 net1 vss_startup vss_startup sky130_fd_pr__nfet_01v8 L=0.15 W=0.5 nf=1 ad='int((nf+1)/2) * W/nf * 0.29'
+ as='int((nf+2)/2) * W/nf * 0.29' pd='2*int((nf+1)/2) * (W/nf + 0.29)' ps='2*int((nf+2)/2) * (W/nf + 0.29)'
+ nrd='0.29 / W' nrs='0.29 / W' sa=0 sb=0 sd=0 mult=1 m=1
XM32 vss_startup vtrigger_line2 net2 vdd_startup sky130_fd_pr__pfet_01v8 L=0.15 W=2 nf=2 ad='int((nf+1)/2) * W/nf * 0.29'
+ as='int((nf+2)/2) * W/nf * 0.29' pd='2*int((nf+1)/2) * (W/nf + 0.29)' ps='2*int((nf+2)/2) * (W/nf + 0.29)'
+ nrd='0.29 / W' nrs='0.29 / W' sa=0 sb=0 sd=0 mult=1 m=1
XM33 vdd_startup vtrigger_line2 net3 vss_startup sky130_fd_pr__nfet_01v8 L=0.15 W=1 nf=2 ad='int((nf+1)/2) * W/nf * 0.29'
+ as='int((nf+2)/2) * W/nf * 0.29' pd='2*int((nf+1)/2) * (W/nf + 0.29)' ps='2*int((nf+2)/2) * (W/nf + 0.29)'
+ nrd='0.29 / W' nrs='0.29 / W' sa=0 sb=0 sd=0 mult=1 m=1
x8 net18 vss_startup vss_startup vdd_startup vdd_startup net5 sky130_fd_sc_hd__inv_1
x9 net5 vss_startup vss_startup vdd_startup vdd_startup net19 sky130_fd_sc_hd__inv_1
x23 net4 vss_startup vss_startup vdd_startup vdd_startup net18 sky130_fd_sc_hd__inv_1
x24 net19 vss_startup vss_startup vdd_startup vdd_startup net6 sky130_fd_sc_hd__inv_1
x25 net20 vss_startup vss_startup vdd_startup vdd_startup net4 sky130_fd_sc_hd__inv_1
x26 net8 vss_startup vss_startup vdd_startup vdd_startup net20 sky130_fd_sc_hd__inv_1
x7 net4 net5 net6 net7 trigger_line[0] trigger_line[1] vss_startup vss_startup vdd_startup
+ vdd_startup net9 sky130_fd_sc_hd__mux4_1
x27 net6 vss_startup vss_startup vdd_startup vdd_startup net21 sky130_fd_sc_hd__inv_1
x28 net21 vss_startup vss_startup vdd_startup vdd_startup net7 sky130_fd_sc_hd__inv_1
x15 net10 vss_startup vss_startup vdd_startup vdd_startup osc_trigger2 sky130_fd_sc_hd__inv_1
x16 uwb_trigger vss_startup vss_startup vdd_startup vdd_startup net22 sky130_fd_sc_hd__inv_1
x17 net22 vss_startup vss_startup vdd_startup vdd_startup vtrigger_line1 sky130_fd_sc_hd__inv_1
x18 vtrigger_line2 vtrigger_line1 vss_startup vss_startup vdd_startup vdd_startup net8
+ sky130_fd_sc_hd__nand2b_1
x1 net9 vss_startup vss_startup vdd_startup vdd_startup net10 sky130_fd_sc_hd__buf_1
x2 vss_startup vss_startup vss_startup vdd_startup vdd_startup vss_startup sky130_fd_sc_hd__inv_1
x14 vss_startup vss_startup vss_startup vdd_startup vdd_startup vss_startup sky130_fd_sc_hd__inv_1
x19 vss_startup vss_startup vss_startup vdd_startup vdd_startup vss_startup sky130_fd_sc_hd__inv_1
x20 vss_startup vss_startup vss_startup vdd_startup vdd_startup vss_startup sky130_fd_sc_hd__inv_1
x21 vss_startup vss_startup vss_startup vdd_startup vdd_startup vss_startup sky130_fd_sc_hd__inv_1
x22 vss_startup vss_startup vss_startup vdd_startup vdd_startup vss_startup sky130_fd_sc_hd__inv_1
x11 net11 vss_startup vss_startup vdd_startup vdd_startup osc_trigger1 sky130_fd_sc_hd__inv_1
x13 net8 vss_startup vss_startup vdd_startup vdd_startup net11 sky130_fd_sc_hd__buf_1
x3 vss_startup vss_startup vss_startup vdd_startup vdd_startup vss_startup sky130_fd_sc_hd__inv_1
x4 vss_startup vss_startup vss_startup vdd_startup vdd_startup vss_startup sky130_fd_sc_hd__inv_1
XM14 vdd_startup vdd_startup vdd_startup vdd_startup sky130_fd_pr__pfet_01v8 L=1.65 W=1.5 nf=1 ad='int((nf+1)/2) * W/nf * 0.29'
+ as='int((nf+2)/2) * W/nf * 0.29' pd='2*int((nf+1)/2) * (W/nf + 0.29)' ps='2*int((nf+2)/2) * (W/nf + 0.29)'
+ nrd='0.29 / W' nrs='0.29 / W' sa=0 sb=0 sd=0 mult=2 m=2
XM15 vss_startup vss_startup vss_startup vss_startup sky130_fd_pr__nfet_01v8 L=0.15 W=0.5 nf=1 ad='int((nf+1)/2) * W/nf * 0.29'
+ as='int((nf+2)/2) * W/nf * 0.29' pd='2*int((nf+1)/2) * (W/nf + 0.29)' ps='2*int((nf+2)/2) * (W/nf + 0.29)'
+ nrd='0.29 / W' nrs='0.29 / W' sa=0 sb=0 sd=0 mult=2 m=2
XM17 vtrigger_line2 vdd_startup vdd_startup vdd_startup sky130_fd_pr__pfet_01v8 L=0.15 W=1 nf=1 ad='int((nf+1)/2) * W/nf * 0.29'
+ as='int((nf+2)/2) * W/nf * 0.29' pd='2*int((nf+1)/2) * (W/nf + 0.29)' ps='2*int((nf+2)/2) * (W/nf + 0.29)'
+ nrd='0.29 / W' nrs='0.29 / W' sa=0 sb=0 sd=0 mult=1 m=1
XM18 vss_startup vss_startup vss_startup vss_startup sky130_fd_pr__nfet_01v8 L=0.15 W=0.5 nf=1 ad='int((nf+1)/2) * W/nf * 0.29'
+ as='int((nf+2)/2) * W/nf * 0.29' pd='2*int((nf+1)/2) * (W/nf + 0.29)' ps='2*int((nf+2)/2) * (W/nf + 0.29)'
+ nrd='0.29 / W' nrs='0.29 / W' sa=0 sb=0 sd=0 mult=1 m=1
XM19 vtrigger_line2 vss_startup vss_startup vss_startup sky130_fd_pr__nfet_01v8 L=0.15 W=0.5 nf=1 ad='int((nf+1)/2) * W/nf * 0.29'
+ as='int((nf+2)/2) * W/nf * 0.29' pd='2*int((nf+1)/2) * (W/nf + 0.29)' ps='2*int((nf+2)/2) * (W/nf + 0.29)'
+ nrd='0.29 / W' nrs='0.29 / W' sa=0 sb=0 sd=0 mult=1 m=1
XM16 vdd_startup vdd_startup vdd_startup vdd_startup sky130_fd_pr__pfet_01v8 L=0.15 W=1 nf=1 ad='int((nf+1)/2) * W/nf * 0.29'
+ as='int((nf+2)/2) * W/nf * 0.29' pd='2*int((nf+1)/2) * (W/nf + 0.29)' ps='2*int((nf+2)/2) * (W/nf + 0.29)'
+ nrd='0.29 / W' nrs='0.29 / W' sa=0 sb=0 sd=0 mult=1 m=1
XM34 net12 delay_line[5] vss_startup vss_startup sky130_fd_pr__nfet_01v8 L=0.15 W=1 nf=1 ad='int((nf+1)/2) * W/nf * 0.29'
+ as='int((nf+2)/2) * W/nf * 0.29' pd='2*int((nf+1)/2) * (W/nf + 0.29)' ps='2*int((nf+2)/2) * (W/nf + 0.29)'
+ nrd='0.29 / W' nrs='0.29 / W' sa=0 sb=0 sd=0 mult=1 m=1
XM5 net13 delay_line[3] vss_startup vss_startup sky130_fd_pr__nfet_01v8 L=0.15 W=1 nf=1 ad='int((nf+1)/2) * W/nf * 0.29'
+ as='int((nf+2)/2) * W/nf * 0.29' pd='2*int((nf+1)/2) * (W/nf + 0.29)' ps='2*int((nf+2)/2) * (W/nf + 0.29)'
+ nrd='0.29 / W' nrs='0.29 / W' sa=0 sb=0 sd=0 mult=1 m=1
XM1 net14 delay_line[2] vss_startup vss_startup sky130_fd_pr__nfet_01v8 L=0.15 W=1 nf=1 ad='int((nf+1)/2) * W/nf * 0.29'
+ as='int((nf+2)/2) * W/nf * 0.29' pd='2*int((nf+1)/2) * (W/nf + 0.29)' ps='2*int((nf+2)/2) * (W/nf + 0.29)'
+ nrd='0.29 / W' nrs='0.29 / W' sa=0 sb=0 sd=0 mult=1 m=1
XM2 net15 delay_line[1] vss_startup vss_startup sky130_fd_pr__nfet_01v8 L=0.15 W=1 nf=1 ad='int((nf+1)/2) * W/nf * 0.29'
+ as='int((nf+2)/2) * W/nf * 0.29' pd='2*int((nf+1)/2) * (W/nf + 0.29)' ps='2*int((nf+2)/2) * (W/nf + 0.29)'
+ nrd='0.29 / W' nrs='0.29 / W' sa=0 sb=0 sd=0 mult=1 m=1
XM3 net16 delay_line[0] vss_startup vss_startup sky130_fd_pr__nfet_01v8 L=0.15 W=1 nf=1 ad='int((nf+1)/2) * W/nf * 0.29'
+ as='int((nf+2)/2) * W/nf * 0.29' pd='2*int((nf+1)/2) * (W/nf + 0.29)' ps='2*int((nf+2)/2) * (W/nf + 0.29)'
+ nrd='0.29 / W' nrs='0.29 / W' sa=0 sb=0 sd=0 mult=1 m=1
XM6 net12 vss_startup vss_startup vss_startup sky130_fd_pr__nfet_01v8 L=0.15 W=1 nf=1 ad='int((nf+1)/2) * W/nf * 0.29'
+ as='int((nf+2)/2) * W/nf * 0.29' pd='2*int((nf+1)/2) * (W/nf + 0.29)' ps='2*int((nf+2)/2) * (W/nf + 0.29)'
+ nrd='0.29 / W' nrs='0.29 / W' sa=0 sb=0 sd=0 mult=1 m=1
XM9 net13 vss_startup vss_startup vss_startup sky130_fd_pr__nfet_01v8 L=0.15 W=1 nf=1 ad='int((nf+1)/2) * W/nf * 0.29'
+ as='int((nf+2)/2) * W/nf * 0.29' pd='2*int((nf+1)/2) * (W/nf + 0.29)' ps='2*int((nf+2)/2) * (W/nf + 0.29)'
+ nrd='0.29 / W' nrs='0.29 / W' sa=0 sb=0 sd=0 mult=1 m=1
XM11 net14 vss_startup vss_startup vss_startup sky130_fd_pr__nfet_01v8 L=0.15 W=1 nf=1 ad='int((nf+1)/2) * W/nf * 0.29'
+ as='int((nf+2)/2) * W/nf * 0.29' pd='2*int((nf+1)/2) * (W/nf + 0.29)' ps='2*int((nf+2)/2) * (W/nf + 0.29)'
+ nrd='0.29 / W' nrs='0.29 / W' sa=0 sb=0 sd=0 mult=1 m=1
XM12 net15 vss_startup vss_startup vss_startup sky130_fd_pr__nfet_01v8 L=0.15 W=1 nf=1 ad='int((nf+1)/2) * W/nf * 0.29'
+ as='int((nf+2)/2) * W/nf * 0.29' pd='2*int((nf+1)/2) * (W/nf + 0.29)' ps='2*int((nf+2)/2) * (W/nf + 0.29)'
+ nrd='0.29 / W' nrs='0.29 / W' sa=0 sb=0 sd=0 mult=1 m=1
XM13 net16 vss_startup vss_startup vss_startup sky130_fd_pr__nfet_01v8 L=0.15 W=1 nf=1 ad='int((nf+1)/2) * W/nf * 0.29'
+ as='int((nf+2)/2) * W/nf * 0.29' pd='2*int((nf+1)/2) * (W/nf + 0.29)' ps='2*int((nf+2)/2) * (W/nf + 0.29)'
+ nrd='0.29 / W' nrs='0.29 / W' sa=0 sb=0 sd=0 mult=1 m=1
XC6 net16 net1 sky130_fd_pr__cap_mim_m3_1 W=2 L=2 MF=2 m=2
XC4 net15 net1 sky130_fd_pr__cap_mim_m3_1 W=2 L=2 MF=2 m=2
XC3 net1 net14 sky130_fd_pr__cap_mim_m3_1 W=2 L=2 MF=2 m=2
XC5 net1 net13 sky130_fd_pr__cap_mim_m3_1 W=2 L=2 MF=2 m=2
XC1 net1 net12 sky130_fd_pr__cap_mim_m3_1 W=2 L=2 MF=4 m=4
XC7 net14 net1 sky130_fd_pr__cap_mim_m3_1 W=2 L=2 MF=2 m=2
XC8 net13 net1 sky130_fd_pr__cap_mim_m3_1 W=2 L=2 MF=2 m=2
XC9 net12 net1 sky130_fd_pr__cap_mim_m3_1 W=2 L=2 MF=4 m=4
XM7 net12 delay_line[5] vss_startup vss_startup sky130_fd_pr__nfet_01v8 L=0.15 W=1 nf=1 ad='int((nf+1)/2) * W/nf * 0.29'
+ as='int((nf+2)/2) * W/nf * 0.29' pd='2*int((nf+1)/2) * (W/nf + 0.29)' ps='2*int((nf+2)/2) * (W/nf + 0.29)'
+ nrd='0.29 / W' nrs='0.29 / W' sa=0 sb=0 sd=0 mult=1 m=1
XM4 net12 vss_startup vss_startup vss_startup sky130_fd_pr__nfet_01v8 L=0.15 W=1 nf=1 ad='int((nf+1)/2) * W/nf * 0.29'
+ as='int((nf+2)/2) * W/nf * 0.29' pd='2*int((nf+1)/2) * (W/nf + 0.29)' ps='2*int((nf+2)/2) * (W/nf + 0.29)'
+ nrd='0.29 / W' nrs='0.29 / W' sa=0 sb=0 sd=0 mult=1 m=1
XC11 net1 net12 sky130_fd_pr__cap_mim_m3_1 W=2 L=2 MF=4 m=4
XC12 net12 net1 sky130_fd_pr__cap_mim_m3_1 W=2 L=2 MF=4 m=4
XM8 net17 delay_line[4] vss_startup vss_startup sky130_fd_pr__nfet_01v8 L=0.15 W=1 nf=1 ad='int((nf+1)/2) * W/nf * 0.29'
+ as='int((nf+2)/2) * W/nf * 0.29' pd='2*int((nf+1)/2) * (W/nf + 0.29)' ps='2*int((nf+2)/2) * (W/nf + 0.29)'
+ nrd='0.29 / W' nrs='0.29 / W' sa=0 sb=0 sd=0 mult=1 m=1
XM20 net17 vss_startup vss_startup vss_startup sky130_fd_pr__nfet_01v8 L=0.15 W=1 nf=1 ad='int((nf+1)/2) * W/nf * 0.29'
+ as='int((nf+2)/2) * W/nf * 0.29' pd='2*int((nf+1)/2) * (W/nf + 0.29)' ps='2*int((nf+2)/2) * (W/nf + 0.29)'
+ nrd='0.29 / W' nrs='0.29 / W' sa=0 sb=0 sd=0 mult=1 m=1
XC13 net1 net17 sky130_fd_pr__cap_mim_m3_1 W=2 L=2 MF=4 m=4
XC14 net17 net1 sky130_fd_pr__cap_mim_m3_1 W=2 L=2 MF=4 m=4
XM21 net17 delay_line[4] vss_startup vss_startup sky130_fd_pr__nfet_01v8 L=0.15 W=1 nf=1 ad='int((nf+1)/2) * W/nf * 0.29'
+ as='int((nf+2)/2) * W/nf * 0.29' pd='2*int((nf+1)/2) * (W/nf + 0.29)' ps='2*int((nf+2)/2) * (W/nf + 0.29)'
+ nrd='0.29 / W' nrs='0.29 / W' sa=0 sb=0 sd=0 mult=1 m=1
XM22 net17 vss_startup vss_startup vss_startup sky130_fd_pr__nfet_01v8 L=0.15 W=1 nf=1 ad='int((nf+1)/2) * W/nf * 0.29'
+ as='int((nf+2)/2) * W/nf * 0.29' pd='2*int((nf+1)/2) * (W/nf + 0.29)' ps='2*int((nf+2)/2) * (W/nf + 0.29)'
+ nrd='0.29 / W' nrs='0.29 / W' sa=0 sb=0 sd=0 mult=1 m=1
XC15 net1 net17 sky130_fd_pr__cap_mim_m3_1 W=2 L=2 MF=4 m=4
XC16 net17 net1 sky130_fd_pr__cap_mim_m3_1 W=2 L=2 MF=4 m=4
XM24 net13 delay_line[3] vss_startup vss_startup sky130_fd_pr__nfet_01v8 L=0.15 W=1 nf=1 ad='int((nf+1)/2) * W/nf * 0.29'
+ as='int((nf+2)/2) * W/nf * 0.29' pd='2*int((nf+1)/2) * (W/nf + 0.29)' ps='2*int((nf+2)/2) * (W/nf + 0.29)'
+ nrd='0.29 / W' nrs='0.29 / W' sa=0 sb=0 sd=0 mult=1 m=1
XM25 net13 vss_startup vss_startup vss_startup sky130_fd_pr__nfet_01v8 L=0.15 W=1 nf=1 ad='int((nf+1)/2) * W/nf * 0.29'
+ as='int((nf+2)/2) * W/nf * 0.29' pd='2*int((nf+1)/2) * (W/nf + 0.29)' ps='2*int((nf+2)/2) * (W/nf + 0.29)'
+ nrd='0.29 / W' nrs='0.29 / W' sa=0 sb=0 sd=0 mult=1 m=1
XC2 net1 net13 sky130_fd_pr__cap_mim_m3_1 W=2 L=2 MF=2 m=2
XC10 net13 net1 sky130_fd_pr__cap_mim_m3_1 W=2 L=2 MF=2 m=2
XM26 vss_startup vss_startup vss_startup vss_startup sky130_fd_pr__nfet_01v8 L=0.15 W=1 nf=1 ad='int((nf+1)/2) * W/nf * 0.29'
+ as='int((nf+2)/2) * W/nf * 0.29' pd='2*int((nf+1)/2) * (W/nf + 0.29)' ps='2*int((nf+2)/2) * (W/nf + 0.29)'
+ nrd='0.29 / W' nrs='0.29 / W' sa=0 sb=0 sd=0 mult=9 m=9
.ends


* expanding   symbol:  mux21.sym # of pins=7
** sym_path: /foss/designs/uwb_transmitter/lvsf/mux21.sym
** sch_path: /foss/designs/uwb_transmitter/lvsf/mux21.sch
.subckt mux21 vdd_mux21 vss_mux21 in1_mux21 in0_mux21 s1_mux21 s0_mux21 out_mux21
*.PININFO vdd_mux21:I vss_mux21:I in1_mux21:I in0_mux21:I out_mux21:O s1_mux21:I s0_mux21:I
x1 net1 net2 vss_mux21 vss_mux21 vdd_mux21 vdd_mux21 net3 sky130_fd_sc_hd__and2_1
XM1 out_mux21 net3 vss_mux21 vss_mux21 sky130_fd_pr__nfet_01v8 L=0.2 W=1 nf=1 ad='int((nf+1)/2) * W/nf * 0.29'
+ as='int((nf+2)/2) * W/nf * 0.29' pd='2*int((nf+1)/2) * (W/nf + 0.29)' ps='2*int((nf+2)/2) * (W/nf + 0.29)'
+ nrd='0.29 / W' nrs='0.29 / W' sa=0 sb=0 sd=0 mult=2 m=2
x2 s1_mux21 vss_mux21 vss_mux21 vdd_mux21 vdd_mux21 net1 sky130_fd_sc_hd__inv_1
x3 s0_mux21 vss_mux21 vss_mux21 vdd_mux21 vdd_mux21 net2 sky130_fd_sc_hd__inv_1
x4 vdd_mux21 in1_mux21 out_mux21 vss_mux21 s1_mux21 tg
x5 vdd_mux21 in0_mux21 out_mux21 vss_mux21 s0_mux21 tg