* NGSPICE file created from uwb_wrapper.ext - technology: sky130A

.subckt uwb_noise_decoup_cell1 nmoscap_top nmoscap_bot pwell mimcap_top mimcap_bot
X0 mimcap_top mimcap_bot sky130_fd_pr__cap_mim_m3_1 l=17.2 w=17.2
X1 nmoscap_bot nmoscap_top nmoscap_bot pwell sky130_fd_pr__nfet_01v8 ad=11.5 pd=34.2 as=23 ps=68.4 w=16.4 l=16
.ends

.subckt sky130_fd_pr__cap_mim_m3_1_RX9LCP m3_n786_n640# c1_n746_n600#
X0 c1_n746_n600# m3_n786_n640# sky130_fd_pr__cap_mim_m3_1 l=6 w=6
.ends

.subckt sky130_fd_pr__nfet_01v8_QMBXET a_n33_n375# a_n509_n375# a_447_n375# a_n483_n463#
+ a_159_n375# a_n255_n463# a_255_n375# a_351_n375# a_n417_n375# a_n369_n463# a_303_n463#
+ a_n63_n463# a_n611_n549# a_n129_n375# a_63_n375# a_n225_n375# a_417_n463# a_n321_n375#
+ a_129_n463#
X0 a_63_n375# a_n63_n463# a_n33_n375# a_n611_n549# sky130_fd_pr__nfet_01v8 ad=0.619 pd=4.08 as=0.619 ps=4.08 w=3.75 l=0.15
X1 a_n129_n375# a_n255_n463# a_n225_n375# a_n611_n549# sky130_fd_pr__nfet_01v8 ad=0.619 pd=4.08 as=0.619 ps=4.08 w=3.75 l=0.15
X2 a_n417_n375# a_n483_n463# a_n509_n375# a_n611_n549# sky130_fd_pr__nfet_01v8 ad=0.619 pd=4.08 as=1.16 ps=8.12 w=3.75 l=0.15
X3 a_n33_n375# a_n63_n463# a_n129_n375# a_n611_n549# sky130_fd_pr__nfet_01v8 ad=0.619 pd=4.08 as=0.619 ps=4.08 w=3.75 l=0.15
X4 a_351_n375# a_303_n463# a_255_n375# a_n611_n549# sky130_fd_pr__nfet_01v8 ad=0.619 pd=4.08 as=0.619 ps=4.08 w=3.75 l=0.15
X5 a_255_n375# a_129_n463# a_159_n375# a_n611_n549# sky130_fd_pr__nfet_01v8 ad=0.619 pd=4.08 as=0.619 ps=4.08 w=3.75 l=0.15
X6 a_n321_n375# a_n369_n463# a_n417_n375# a_n611_n549# sky130_fd_pr__nfet_01v8 ad=0.619 pd=4.08 as=0.619 ps=4.08 w=3.75 l=0.15
X7 a_159_n375# a_129_n463# a_63_n375# a_n611_n549# sky130_fd_pr__nfet_01v8 ad=0.619 pd=4.08 as=0.619 ps=4.08 w=3.75 l=0.15
X8 a_n225_n375# a_n255_n463# a_n321_n375# a_n611_n549# sky130_fd_pr__nfet_01v8 ad=0.619 pd=4.08 as=0.619 ps=4.08 w=3.75 l=0.15
X9 a_447_n375# a_417_n463# a_351_n375# a_n611_n549# sky130_fd_pr__nfet_01v8 ad=1.16 pd=8.12 as=0.619 ps=4.08 w=3.75 l=0.15
.ends

.subckt osc_nfet_w15_nf4 gate drain en1 en2 m1_369_110# m1_642_110# m1_199_1332# VSUB
Xsky130_fd_pr__nfet_01v8_QMBXET_0 drain VSUB VSUB VSUB VSUB m1_369_110# m1_199_1332#
+ drain drain gate gate gate VSUB m1_199_1332# m1_199_1332# VSUB VSUB m1_199_1332#
+ m1_642_110# sky130_fd_pr__nfet_01v8_QMBXET
.ends

.subckt osc_nfet_w15_nf4_cc osc_nfet_w15_nf4_1/en2 osc_nfet_w15_nf4_1/en1 osc_nfet_w15_nf4_0/gate
+ osc_nfet_w15_nf4_1/m1_199_1332# osc_nfet_w15_nf4_1/gate osc_nfet_w15_nf4_0/m1_199_1332#
+ VSUBS
Xosc_nfet_w15_nf4_0 osc_nfet_w15_nf4_0/gate osc_nfet_w15_nf4_1/gate osc_nfet_w15_nf4_1/en1
+ osc_nfet_w15_nf4_1/en2 osc_nfet_w15_nf4_1/en2 osc_nfet_w15_nf4_1/en2 osc_nfet_w15_nf4_0/m1_199_1332#
+ VSUBS osc_nfet_w15_nf4
Xosc_nfet_w15_nf4_1 osc_nfet_w15_nf4_1/gate osc_nfet_w15_nf4_0/gate osc_nfet_w15_nf4_1/en1
+ osc_nfet_w15_nf4_1/en2 osc_nfet_w15_nf4_1/en1 osc_nfet_w15_nf4_1/en1 osc_nfet_w15_nf4_1/m1_199_1332#
+ VSUBS osc_nfet_w15_nf4
.ends

.subckt osc_nfet_w30_nf4_cc osc_nfet_w15_nf4_cc_0/osc_nfet_w15_nf4_1/m1_199_1332#
+ osc_nfet_w15_nf4_cc_0/osc_nfet_w15_nf4_0/m1_199_1332# osc_nfet_w15_nf4_cc_1/osc_nfet_w15_nf4_1/m1_199_1332#
+ osc_nfet_w15_nf4_cc_1/osc_nfet_w15_nf4_1/en2 osc_nfet_w15_nf4_cc_1/osc_nfet_w15_nf4_1/en1
+ osc_nfet_w15_nf4_cc_1/osc_nfet_w15_nf4_0/m1_199_1332# osc_nfet_w15_nf4_cc_1/osc_nfet_w15_nf4_1/gate
+ osc_nfet_w15_nf4_cc_1/osc_nfet_w15_nf4_0/gate VSUBS
Xosc_nfet_w15_nf4_cc_1 osc_nfet_w15_nf4_cc_1/osc_nfet_w15_nf4_1/en2 osc_nfet_w15_nf4_cc_1/osc_nfet_w15_nf4_1/en1
+ osc_nfet_w15_nf4_cc_1/osc_nfet_w15_nf4_0/gate osc_nfet_w15_nf4_cc_1/osc_nfet_w15_nf4_1/m1_199_1332#
+ osc_nfet_w15_nf4_cc_1/osc_nfet_w15_nf4_1/gate osc_nfet_w15_nf4_cc_1/osc_nfet_w15_nf4_0/m1_199_1332#
+ VSUBS osc_nfet_w15_nf4_cc
Xosc_nfet_w15_nf4_cc_0 osc_nfet_w15_nf4_cc_1/osc_nfet_w15_nf4_1/en2 osc_nfet_w15_nf4_cc_1/osc_nfet_w15_nf4_1/en1
+ osc_nfet_w15_nf4_cc_1/osc_nfet_w15_nf4_0/gate osc_nfet_w15_nf4_cc_0/osc_nfet_w15_nf4_1/m1_199_1332#
+ osc_nfet_w15_nf4_cc_1/osc_nfet_w15_nf4_1/gate osc_nfet_w15_nf4_cc_0/osc_nfet_w15_nf4_0/m1_199_1332#
+ VSUBS osc_nfet_w15_nf4_cc
.ends

.subckt osc_nfet_w60_nf4_cc osc_nfet_w30_nf4_cc_0/osc_nfet_w15_nf4_cc_0/osc_nfet_w15_nf4_0/m1_199_1332#
+ osc_nfet_w30_nf4_cc_0/osc_nfet_w15_nf4_cc_1/osc_nfet_w15_nf4_1/m1_199_1332# osc_nfet_w30_nf4_cc_1/osc_nfet_w15_nf4_cc_1/osc_nfet_w15_nf4_0/m1_199_1332#
+ osc_nfet_w30_nf4_cc_0/osc_nfet_w15_nf4_cc_1/osc_nfet_w15_nf4_0/m1_199_1332# osc_nfet_w30_nf4_cc_1/osc_nfet_w15_nf4_cc_0/osc_nfet_w15_nf4_1/m1_199_1332#
+ osc_nfet_w30_nf4_cc_0/osc_nfet_w15_nf4_cc_0/osc_nfet_w15_nf4_1/m1_199_1332# osc_nfet_w30_nf4_cc_1/osc_nfet_w15_nf4_cc_1/osc_nfet_w15_nf4_1/gate
+ osc_nfet_w30_nf4_cc_1/osc_nfet_w15_nf4_cc_1/osc_nfet_w15_nf4_1/en2 osc_nfet_w30_nf4_cc_1/osc_nfet_w15_nf4_cc_1/osc_nfet_w15_nf4_1/en1
+ osc_nfet_w30_nf4_cc_1/osc_nfet_w15_nf4_cc_1/osc_nfet_w15_nf4_0/gate osc_nfet_w30_nf4_cc_1/osc_nfet_w15_nf4_cc_0/osc_nfet_w15_nf4_0/m1_199_1332#
+ osc_nfet_w30_nf4_cc_1/osc_nfet_w15_nf4_cc_1/osc_nfet_w15_nf4_1/m1_199_1332# VSUBS
Xosc_nfet_w30_nf4_cc_1 osc_nfet_w30_nf4_cc_1/osc_nfet_w15_nf4_cc_0/osc_nfet_w15_nf4_1/m1_199_1332#
+ osc_nfet_w30_nf4_cc_1/osc_nfet_w15_nf4_cc_0/osc_nfet_w15_nf4_0/m1_199_1332# osc_nfet_w30_nf4_cc_1/osc_nfet_w15_nf4_cc_1/osc_nfet_w15_nf4_1/m1_199_1332#
+ osc_nfet_w30_nf4_cc_1/osc_nfet_w15_nf4_cc_1/osc_nfet_w15_nf4_1/en2 osc_nfet_w30_nf4_cc_1/osc_nfet_w15_nf4_cc_1/osc_nfet_w15_nf4_1/en1
+ osc_nfet_w30_nf4_cc_1/osc_nfet_w15_nf4_cc_1/osc_nfet_w15_nf4_0/m1_199_1332# osc_nfet_w30_nf4_cc_1/osc_nfet_w15_nf4_cc_1/osc_nfet_w15_nf4_1/gate
+ osc_nfet_w30_nf4_cc_1/osc_nfet_w15_nf4_cc_1/osc_nfet_w15_nf4_0/gate VSUBS osc_nfet_w30_nf4_cc
Xosc_nfet_w30_nf4_cc_0 osc_nfet_w30_nf4_cc_0/osc_nfet_w15_nf4_cc_0/osc_nfet_w15_nf4_1/m1_199_1332#
+ osc_nfet_w30_nf4_cc_0/osc_nfet_w15_nf4_cc_0/osc_nfet_w15_nf4_0/m1_199_1332# osc_nfet_w30_nf4_cc_0/osc_nfet_w15_nf4_cc_1/osc_nfet_w15_nf4_1/m1_199_1332#
+ osc_nfet_w30_nf4_cc_1/osc_nfet_w15_nf4_cc_1/osc_nfet_w15_nf4_1/en2 osc_nfet_w30_nf4_cc_1/osc_nfet_w15_nf4_cc_1/osc_nfet_w15_nf4_1/en1
+ osc_nfet_w30_nf4_cc_0/osc_nfet_w15_nf4_cc_1/osc_nfet_w15_nf4_0/m1_199_1332# osc_nfet_w30_nf4_cc_1/osc_nfet_w15_nf4_cc_1/osc_nfet_w15_nf4_1/gate
+ osc_nfet_w30_nf4_cc_1/osc_nfet_w15_nf4_cc_1/osc_nfet_w15_nf4_0/gate VSUBS osc_nfet_w30_nf4_cc
.ends

.subckt osc_nfet_w120_nf4_cc osc_nfet_w60_nf4_cc_1/osc_nfet_w30_nf4_cc_1/osc_nfet_w15_nf4_cc_0/osc_nfet_w15_nf4_0/m1_199_1332#
+ osc_nfet_w60_nf4_cc_0/osc_nfet_w30_nf4_cc_1/osc_nfet_w15_nf4_cc_1/osc_nfet_w15_nf4_0/m1_199_1332#
+ osc_nfet_w60_nf4_cc_1/osc_nfet_w30_nf4_cc_1/osc_nfet_w15_nf4_cc_1/osc_nfet_w15_nf4_1/m1_199_1332#
+ osc_nfet_w60_nf4_cc_1/osc_nfet_w30_nf4_cc_0/osc_nfet_w15_nf4_cc_0/osc_nfet_w15_nf4_0/m1_199_1332#
+ osc_nfet_w60_nf4_cc_0/osc_nfet_w30_nf4_cc_0/osc_nfet_w15_nf4_cc_1/osc_nfet_w15_nf4_0/m1_199_1332#
+ osc_nfet_w60_nf4_cc_1/osc_nfet_w30_nf4_cc_0/osc_nfet_w15_nf4_cc_1/osc_nfet_w15_nf4_1/m1_199_1332#
+ osc_nfet_w60_nf4_cc_1/osc_nfet_w30_nf4_cc_1/osc_nfet_w15_nf4_cc_1/osc_nfet_w15_nf4_0/m1_199_1332#
+ osc_nfet_w60_nf4_cc_1/osc_nfet_w30_nf4_cc_0/osc_nfet_w15_nf4_cc_1/osc_nfet_w15_nf4_0/m1_199_1332#
+ osc_nfet_w60_nf4_cc_0/osc_nfet_w30_nf4_cc_1/osc_nfet_w15_nf4_cc_0/osc_nfet_w15_nf4_1/m1_199_1332#
+ osc_nfet_w60_nf4_cc_0/osc_nfet_w30_nf4_cc_0/osc_nfet_w15_nf4_cc_0/osc_nfet_w15_nf4_1/m1_199_1332#
+ osc_nfet_w60_nf4_cc_1/osc_nfet_w30_nf4_cc_1/osc_nfet_w15_nf4_cc_1/osc_nfet_w15_nf4_1/gate
+ osc_nfet_w60_nf4_cc_0/osc_nfet_w30_nf4_cc_1/osc_nfet_w15_nf4_cc_0/osc_nfet_w15_nf4_0/m1_199_1332#
+ osc_nfet_w60_nf4_cc_1/osc_nfet_w30_nf4_cc_1/osc_nfet_w15_nf4_cc_0/osc_nfet_w15_nf4_1/m1_199_1332#
+ osc_nfet_w60_nf4_cc_0/osc_nfet_w30_nf4_cc_1/osc_nfet_w15_nf4_cc_1/osc_nfet_w15_nf4_1/m1_199_1332#
+ osc_nfet_w60_nf4_cc_1/osc_nfet_w30_nf4_cc_1/osc_nfet_w15_nf4_cc_1/osc_nfet_w15_nf4_1/en2
+ osc_nfet_w60_nf4_cc_1/osc_nfet_w30_nf4_cc_1/osc_nfet_w15_nf4_cc_1/osc_nfet_w15_nf4_1/en1
+ osc_nfet_w60_nf4_cc_1/osc_nfet_w30_nf4_cc_1/osc_nfet_w15_nf4_cc_1/osc_nfet_w15_nf4_0/gate
+ osc_nfet_w60_nf4_cc_0/osc_nfet_w30_nf4_cc_0/osc_nfet_w15_nf4_cc_0/osc_nfet_w15_nf4_0/m1_199_1332#
+ osc_nfet_w60_nf4_cc_1/osc_nfet_w30_nf4_cc_0/osc_nfet_w15_nf4_cc_0/osc_nfet_w15_nf4_1/m1_199_1332#
+ osc_nfet_w60_nf4_cc_0/osc_nfet_w30_nf4_cc_0/osc_nfet_w15_nf4_cc_1/osc_nfet_w15_nf4_1/m1_199_1332#
+ VSUBS
Xosc_nfet_w60_nf4_cc_0 osc_nfet_w60_nf4_cc_0/osc_nfet_w30_nf4_cc_0/osc_nfet_w15_nf4_cc_0/osc_nfet_w15_nf4_0/m1_199_1332#
+ osc_nfet_w60_nf4_cc_0/osc_nfet_w30_nf4_cc_0/osc_nfet_w15_nf4_cc_1/osc_nfet_w15_nf4_1/m1_199_1332#
+ osc_nfet_w60_nf4_cc_0/osc_nfet_w30_nf4_cc_1/osc_nfet_w15_nf4_cc_1/osc_nfet_w15_nf4_0/m1_199_1332#
+ osc_nfet_w60_nf4_cc_0/osc_nfet_w30_nf4_cc_0/osc_nfet_w15_nf4_cc_1/osc_nfet_w15_nf4_0/m1_199_1332#
+ osc_nfet_w60_nf4_cc_0/osc_nfet_w30_nf4_cc_1/osc_nfet_w15_nf4_cc_0/osc_nfet_w15_nf4_1/m1_199_1332#
+ osc_nfet_w60_nf4_cc_0/osc_nfet_w30_nf4_cc_0/osc_nfet_w15_nf4_cc_0/osc_nfet_w15_nf4_1/m1_199_1332#
+ osc_nfet_w60_nf4_cc_1/osc_nfet_w30_nf4_cc_1/osc_nfet_w15_nf4_cc_1/osc_nfet_w15_nf4_1/gate
+ osc_nfet_w60_nf4_cc_1/osc_nfet_w30_nf4_cc_1/osc_nfet_w15_nf4_cc_1/osc_nfet_w15_nf4_1/en2
+ osc_nfet_w60_nf4_cc_1/osc_nfet_w30_nf4_cc_1/osc_nfet_w15_nf4_cc_1/osc_nfet_w15_nf4_1/en1
+ osc_nfet_w60_nf4_cc_1/osc_nfet_w30_nf4_cc_1/osc_nfet_w15_nf4_cc_1/osc_nfet_w15_nf4_0/gate
+ osc_nfet_w60_nf4_cc_0/osc_nfet_w30_nf4_cc_1/osc_nfet_w15_nf4_cc_0/osc_nfet_w15_nf4_0/m1_199_1332#
+ osc_nfet_w60_nf4_cc_0/osc_nfet_w30_nf4_cc_1/osc_nfet_w15_nf4_cc_1/osc_nfet_w15_nf4_1/m1_199_1332#
+ VSUBS osc_nfet_w60_nf4_cc
Xosc_nfet_w60_nf4_cc_1 osc_nfet_w60_nf4_cc_1/osc_nfet_w30_nf4_cc_0/osc_nfet_w15_nf4_cc_0/osc_nfet_w15_nf4_0/m1_199_1332#
+ osc_nfet_w60_nf4_cc_1/osc_nfet_w30_nf4_cc_0/osc_nfet_w15_nf4_cc_1/osc_nfet_w15_nf4_1/m1_199_1332#
+ osc_nfet_w60_nf4_cc_1/osc_nfet_w30_nf4_cc_1/osc_nfet_w15_nf4_cc_1/osc_nfet_w15_nf4_0/m1_199_1332#
+ osc_nfet_w60_nf4_cc_1/osc_nfet_w30_nf4_cc_0/osc_nfet_w15_nf4_cc_1/osc_nfet_w15_nf4_0/m1_199_1332#
+ osc_nfet_w60_nf4_cc_1/osc_nfet_w30_nf4_cc_1/osc_nfet_w15_nf4_cc_0/osc_nfet_w15_nf4_1/m1_199_1332#
+ osc_nfet_w60_nf4_cc_1/osc_nfet_w30_nf4_cc_0/osc_nfet_w15_nf4_cc_0/osc_nfet_w15_nf4_1/m1_199_1332#
+ osc_nfet_w60_nf4_cc_1/osc_nfet_w30_nf4_cc_1/osc_nfet_w15_nf4_cc_1/osc_nfet_w15_nf4_1/gate
+ osc_nfet_w60_nf4_cc_1/osc_nfet_w30_nf4_cc_1/osc_nfet_w15_nf4_cc_1/osc_nfet_w15_nf4_1/en2
+ osc_nfet_w60_nf4_cc_1/osc_nfet_w30_nf4_cc_1/osc_nfet_w15_nf4_cc_1/osc_nfet_w15_nf4_1/en1
+ osc_nfet_w60_nf4_cc_1/osc_nfet_w30_nf4_cc_1/osc_nfet_w15_nf4_cc_1/osc_nfet_w15_nf4_0/gate
+ osc_nfet_w60_nf4_cc_1/osc_nfet_w30_nf4_cc_1/osc_nfet_w15_nf4_cc_0/osc_nfet_w15_nf4_0/m1_199_1332#
+ osc_nfet_w60_nf4_cc_1/osc_nfet_w30_nf4_cc_1/osc_nfet_w15_nf4_cc_1/osc_nfet_w15_nf4_1/m1_199_1332#
+ VSUBS osc_nfet_w60_nf4_cc
.ends

.subckt sky130_fd_pr__res_generic_m5_EGUVWD m5_n500_200# m5_n500_n257#
R0 m5_n500_200# m5_n500_n257# sky130_fd_pr__res_generic_m5 w=5 l=2
.ends

.subckt uwb_inductor pm p2 p1 li_n9750_8200#
Xsky130_fd_pr__res_generic_m5_EGUVWD_0 pm p1 sky130_fd_pr__res_generic_m5_EGUVWD
Xsky130_fd_pr__res_generic_m5_EGUVWD_1 pm p2 sky130_fd_pr__res_generic_m5_EGUVWD
.ends

.subckt osc_total en1_osc[0] vdd_osc en1_osc[3] en2_osc[2] en1_osc[2] en2_osc[1] en2_osc[0]
+ outn_osc en1_osc[1] outp_osc VSUBS en2_osc[3]
Xsky130_fd_pr__cap_mim_m3_1_RX9LCP_26 m2_140_6796# m2_9198_n492# sky130_fd_pr__cap_mim_m3_1_RX9LCP
Xsky130_fd_pr__cap_mim_m3_1_RX9LCP_37 m2_9198_n492# m2_140_6796# sky130_fd_pr__cap_mim_m3_1_RX9LCP
Xsky130_fd_pr__cap_mim_m3_1_RX9LCP_15 m2_140_6796# m2_9198_n492# sky130_fd_pr__cap_mim_m3_1_RX9LCP
Xsky130_fd_pr__cap_mim_m3_1_RX9LCP_48 m2_140_6796# m2_9198_n492# sky130_fd_pr__cap_mim_m3_1_RX9LCP
Xsky130_fd_pr__cap_mim_m3_1_RX9LCP_59 m2_140_6796# m2_9198_n492# sky130_fd_pr__cap_mim_m3_1_RX9LCP
Xsky130_fd_pr__cap_mim_m3_1_RX9LCP_3 m2_140_6796# m2_9198_n492# sky130_fd_pr__cap_mim_m3_1_RX9LCP
Xsky130_fd_pr__cap_mim_m3_1_RX9LCP_27 m2_140_6796# m2_9198_n492# sky130_fd_pr__cap_mim_m3_1_RX9LCP
Xsky130_fd_pr__cap_mim_m3_1_RX9LCP_38 m2_140_6796# m2_9198_n492# sky130_fd_pr__cap_mim_m3_1_RX9LCP
Xsky130_fd_pr__cap_mim_m3_1_RX9LCP_16 m2_140_6796# m2_9198_n492# sky130_fd_pr__cap_mim_m3_1_RX9LCP
Xsky130_fd_pr__cap_mim_m3_1_RX9LCP_49 m2_9198_n492# m2_140_6796# sky130_fd_pr__cap_mim_m3_1_RX9LCP
Xsky130_fd_pr__cap_mim_m3_1_RX9LCP_4 m2_140_6796# m2_9198_n492# sky130_fd_pr__cap_mim_m3_1_RX9LCP
Xsky130_fd_pr__cap_mim_m3_1_RX9LCP_28 m2_140_6796# m2_9198_n492# sky130_fd_pr__cap_mim_m3_1_RX9LCP
Xsky130_fd_pr__cap_mim_m3_1_RX9LCP_39 m2_9198_n492# m2_140_6796# sky130_fd_pr__cap_mim_m3_1_RX9LCP
Xsky130_fd_pr__cap_mim_m3_1_RX9LCP_17 m2_9198_n492# m2_140_6796# sky130_fd_pr__cap_mim_m3_1_RX9LCP
Xsky130_fd_pr__cap_mim_m3_1_RX9LCP_6 m2_140_6796# m2_9198_n492# sky130_fd_pr__cap_mim_m3_1_RX9LCP
Xsky130_fd_pr__cap_mim_m3_1_RX9LCP_5 m2_9198_n492# m2_140_6796# sky130_fd_pr__cap_mim_m3_1_RX9LCP
Xsky130_fd_pr__cap_mim_m3_1_RX9LCP_29 m2_9198_n492# m2_140_6796# sky130_fd_pr__cap_mim_m3_1_RX9LCP
Xsky130_fd_pr__cap_mim_m3_1_RX9LCP_18 m2_9198_n492# m2_140_6796# sky130_fd_pr__cap_mim_m3_1_RX9LCP
Xsky130_fd_pr__cap_mim_m3_1_RX9LCP_19 m2_140_6796# m2_9198_n492# sky130_fd_pr__cap_mim_m3_1_RX9LCP
Xsky130_fd_pr__cap_mim_m3_1_RX9LCP_7 m2_9198_n492# m2_140_6796# sky130_fd_pr__cap_mim_m3_1_RX9LCP
Xsky130_fd_pr__cap_mim_m3_1_RX9LCP_8 m2_140_6796# m2_9198_n492# sky130_fd_pr__cap_mim_m3_1_RX9LCP
Xosc_nfet_w120_nf4_cc_0 m2_140_6796# m2_140_6796# m2_9198_n492# m2_140_6796# m2_140_6796#
+ m2_9198_n492# m2_140_6796# m2_140_6796# m2_9198_n492# m2_9198_n492# outn_osc m2_140_6796#
+ m2_9198_n492# m2_9198_n492# en2_osc[3] en1_osc[3] outp_osc m2_140_6796# m2_9198_n492#
+ m2_9198_n492# VSUBS osc_nfet_w120_nf4_cc
Xsky130_fd_pr__cap_mim_m3_1_RX9LCP_9 m2_9198_n492# m2_140_6796# sky130_fd_pr__cap_mim_m3_1_RX9LCP
Xosc_nfet_w60_nf4_cc_0 m2_140_6796# m2_9198_n492# m2_140_6796# m2_140_6796# m2_9198_n492#
+ m2_9198_n492# outn_osc en2_osc[2] en1_osc[2] outp_osc m2_140_6796# m2_9198_n492#
+ VSUBS osc_nfet_w60_nf4_cc
Xuwb_inductor_0 vdd_osc outn_osc outp_osc VSUBS uwb_inductor
Xsky130_fd_pr__cap_mim_m3_1_RX9LCP_60 m2_140_6796# m2_9198_n492# sky130_fd_pr__cap_mim_m3_1_RX9LCP
Xsky130_fd_pr__cap_mim_m3_1_RX9LCP_50 m2_9198_n492# m2_140_6796# sky130_fd_pr__cap_mim_m3_1_RX9LCP
Xsky130_fd_pr__cap_mim_m3_1_RX9LCP_61 m2_9198_n492# m2_140_6796# sky130_fd_pr__cap_mim_m3_1_RX9LCP
Xsky130_fd_pr__cap_mim_m3_1_RX9LCP_40 m2_140_6796# m2_9198_n492# sky130_fd_pr__cap_mim_m3_1_RX9LCP
Xsky130_fd_pr__cap_mim_m3_1_RX9LCP_51 m2_140_6796# m2_9198_n492# sky130_fd_pr__cap_mim_m3_1_RX9LCP
Xsky130_fd_pr__cap_mim_m3_1_RX9LCP_62 m2_9198_n492# m2_140_6796# sky130_fd_pr__cap_mim_m3_1_RX9LCP
Xsky130_fd_pr__cap_mim_m3_1_RX9LCP_30 m2_9198_n492# m2_140_6796# sky130_fd_pr__cap_mim_m3_1_RX9LCP
Xsky130_fd_pr__cap_mim_m3_1_RX9LCP_41 m2_9198_n492# m2_140_6796# sky130_fd_pr__cap_mim_m3_1_RX9LCP
Xsky130_fd_pr__cap_mim_m3_1_RX9LCP_52 m2_140_6796# m2_9198_n492# sky130_fd_pr__cap_mim_m3_1_RX9LCP
Xsky130_fd_pr__cap_mim_m3_1_RX9LCP_63 m2_9198_n492# m2_140_6796# sky130_fd_pr__cap_mim_m3_1_RX9LCP
Xsky130_fd_pr__cap_mim_m3_1_RX9LCP_32 m2_140_6796# m2_9198_n492# sky130_fd_pr__cap_mim_m3_1_RX9LCP
Xsky130_fd_pr__cap_mim_m3_1_RX9LCP_31 m2_9198_n492# m2_140_6796# sky130_fd_pr__cap_mim_m3_1_RX9LCP
Xsky130_fd_pr__cap_mim_m3_1_RX9LCP_20 m2_140_6796# m2_9198_n492# sky130_fd_pr__cap_mim_m3_1_RX9LCP
Xsky130_fd_pr__cap_mim_m3_1_RX9LCP_21 m2_140_6796# m2_9198_n492# sky130_fd_pr__cap_mim_m3_1_RX9LCP
Xsky130_fd_pr__cap_mim_m3_1_RX9LCP_42 m2_9198_n492# m2_140_6796# sky130_fd_pr__cap_mim_m3_1_RX9LCP
Xsky130_fd_pr__cap_mim_m3_1_RX9LCP_43 m2_140_6796# m2_9198_n492# sky130_fd_pr__cap_mim_m3_1_RX9LCP
Xsky130_fd_pr__cap_mim_m3_1_RX9LCP_10 m2_9198_n492# m2_140_6796# sky130_fd_pr__cap_mim_m3_1_RX9LCP
Xsky130_fd_pr__cap_mim_m3_1_RX9LCP_53 m2_140_6796# m2_9198_n492# sky130_fd_pr__cap_mim_m3_1_RX9LCP
Xsky130_fd_pr__cap_mim_m3_1_RX9LCP_54 m2_140_6796# m2_9198_n492# sky130_fd_pr__cap_mim_m3_1_RX9LCP
Xsky130_fd_pr__cap_mim_m3_1_RX9LCP_33 m2_9198_n492# m2_140_6796# sky130_fd_pr__cap_mim_m3_1_RX9LCP
Xsky130_fd_pr__cap_mim_m3_1_RX9LCP_22 m2_140_6796# m2_9198_n492# sky130_fd_pr__cap_mim_m3_1_RX9LCP
Xsky130_fd_pr__cap_mim_m3_1_RX9LCP_44 m2_140_6796# m2_9198_n492# sky130_fd_pr__cap_mim_m3_1_RX9LCP
Xsky130_fd_pr__cap_mim_m3_1_RX9LCP_11 m2_140_6796# m2_9198_n492# sky130_fd_pr__cap_mim_m3_1_RX9LCP
Xsky130_fd_pr__cap_mim_m3_1_RX9LCP_55 m2_9198_n492# m2_140_6796# sky130_fd_pr__cap_mim_m3_1_RX9LCP
Xsky130_fd_pr__cap_mim_m3_1_RX9LCP_34 m2_9198_n492# m2_140_6796# sky130_fd_pr__cap_mim_m3_1_RX9LCP
Xsky130_fd_pr__cap_mim_m3_1_RX9LCP_23 m2_9198_n492# m2_140_6796# sky130_fd_pr__cap_mim_m3_1_RX9LCP
Xsky130_fd_pr__cap_mim_m3_1_RX9LCP_45 m2_9198_n492# m2_140_6796# sky130_fd_pr__cap_mim_m3_1_RX9LCP
Xsky130_fd_pr__cap_mim_m3_1_RX9LCP_12 m2_140_6796# m2_9198_n492# sky130_fd_pr__cap_mim_m3_1_RX9LCP
Xsky130_fd_pr__cap_mim_m3_1_RX9LCP_56 m2_9198_n492# m2_140_6796# sky130_fd_pr__cap_mim_m3_1_RX9LCP
Xsky130_fd_pr__cap_mim_m3_1_RX9LCP_0 m2_140_6796# m2_9198_n492# sky130_fd_pr__cap_mim_m3_1_RX9LCP
Xsky130_fd_pr__cap_mim_m3_1_RX9LCP_35 m2_140_6796# m2_9198_n492# sky130_fd_pr__cap_mim_m3_1_RX9LCP
Xsky130_fd_pr__cap_mim_m3_1_RX9LCP_24 m2_9198_n492# m2_140_6796# sky130_fd_pr__cap_mim_m3_1_RX9LCP
Xsky130_fd_pr__cap_mim_m3_1_RX9LCP_46 m2_9198_n492# m2_140_6796# sky130_fd_pr__cap_mim_m3_1_RX9LCP
Xsky130_fd_pr__cap_mim_m3_1_RX9LCP_13 m2_9198_n492# m2_140_6796# sky130_fd_pr__cap_mim_m3_1_RX9LCP
Xsky130_fd_pr__cap_mim_m3_1_RX9LCP_57 m2_9198_n492# m2_140_6796# sky130_fd_pr__cap_mim_m3_1_RX9LCP
Xsky130_fd_pr__cap_mim_m3_1_RX9LCP_1 m2_9198_n492# m2_140_6796# sky130_fd_pr__cap_mim_m3_1_RX9LCP
Xsky130_fd_pr__cap_mim_m3_1_RX9LCP_25 m2_9198_n492# m2_140_6796# sky130_fd_pr__cap_mim_m3_1_RX9LCP
Xsky130_fd_pr__cap_mim_m3_1_RX9LCP_36 m2_140_6796# m2_9198_n492# sky130_fd_pr__cap_mim_m3_1_RX9LCP
Xsky130_fd_pr__cap_mim_m3_1_RX9LCP_47 m2_140_6796# m2_9198_n492# sky130_fd_pr__cap_mim_m3_1_RX9LCP
Xsky130_fd_pr__cap_mim_m3_1_RX9LCP_14 m2_9198_n492# m2_140_6796# sky130_fd_pr__cap_mim_m3_1_RX9LCP
Xosc_nfet_w30_nf4_cc_0 m2_9198_n492# m2_140_6796# m2_9198_n492# en2_osc[1] en1_osc[1]
+ m2_140_6796# outn_osc outp_osc VSUBS osc_nfet_w30_nf4_cc
Xosc_nfet_w15_nf4_cc_0 en2_osc[0] en1_osc[0] outp_osc m2_9198_n492# outn_osc m2_140_6796#
+ VSUBS osc_nfet_w15_nf4_cc
Xsky130_fd_pr__cap_mim_m3_1_RX9LCP_2 m2_9198_n492# m2_140_6796# sky130_fd_pr__cap_mim_m3_1_RX9LCP
Xsky130_fd_pr__cap_mim_m3_1_RX9LCP_58 m2_140_6796# m2_9198_n492# sky130_fd_pr__cap_mim_m3_1_RX9LCP
.ends

.subckt sky130_fd_sc_hd__inv_1 A VGND VNB VPB VPWR Y
X0 Y A VGND VNB sky130_fd_pr__nfet_01v8 ad=0.169 pd=1.82 as=0.169 ps=1.82 w=0.65 l=0.15
X1 Y A VPWR VPB sky130_fd_pr__pfet_01v8_hvt ad=0.26 pd=2.52 as=0.26 ps=2.52 w=1 l=0.15
.ends

.subckt sky130_fd_pr__nfet_01v8_ZRZL87 a_n29_n100# a_n127_n100# a_n327_n274# a_n225_n100#
+ a_n193_n188# a_69_n100# a_167_n100# a_n87_142# a_21_142#
X0 a_n127_n100# a_n193_n188# a_n225_n100# a_n327_n274# sky130_fd_pr__nfet_01v8 ad=0.145 pd=1.29 as=0.29 ps=2.58 w=1 l=0.2
X1 a_69_n100# a_21_142# a_n29_n100# a_n327_n274# sky130_fd_pr__nfet_01v8 ad=0.145 pd=1.29 as=0.145 ps=1.29 w=1 l=0.2
X2 a_167_n100# a_n327_n274# a_69_n100# a_n327_n274# sky130_fd_pr__nfet_01v8 ad=0.29 pd=2.58 as=0.145 ps=1.29 w=1 l=0.2
X3 a_n29_n100# a_n87_142# a_n127_n100# a_n327_n274# sky130_fd_pr__nfet_01v8 ad=0.145 pd=1.29 as=0.145 ps=1.29 w=1 l=0.2
.ends

.subckt sky130_fd_pr__pfet_01v8_3HMKL2 a_n180_n197# w_n363_n319# a_n69_n131# a_n29_n100#
+ a_n127_n100# a_n225_n100# a_69_n100#
X0 a_n127_n100# a_n180_n197# a_n225_n100# w_n363_n319# sky130_fd_pr__pfet_01v8 ad=0.145 pd=1.29 as=0.29 ps=2.58 w=1 l=0.2
X1 w_n363_n319# w_n363_n319# a_69_n100# w_n363_n319# sky130_fd_pr__pfet_01v8 ad=0.29 pd=2.58 as=0.145 ps=1.29 w=1 l=0.2
X2 a_69_n100# a_n69_n131# a_n29_n100# w_n363_n319# sky130_fd_pr__pfet_01v8 ad=0.145 pd=1.29 as=0.145 ps=1.29 w=1 l=0.2
X3 a_n29_n100# a_n69_n131# a_n127_n100# w_n363_n319# sky130_fd_pr__pfet_01v8 ad=0.145 pd=1.29 as=0.145 ps=1.29 w=1 l=0.2
.ends

.subckt sky130_fd_sc_hd__and2_1 A B VGND VNB VPB VPWR X
X0 VPWR B a_59_75# VPB sky130_fd_pr__pfet_01v8_hvt ad=0.167 pd=1.39 as=0.0567 ps=0.69 w=0.42 l=0.15
X1 X a_59_75# VPWR VPB sky130_fd_pr__pfet_01v8_hvt ad=0.475 pd=2.95 as=0.167 ps=1.39 w=1 l=0.15
X2 VGND B a_145_75# VNB sky130_fd_pr__nfet_01v8 ad=0.112 pd=1.04 as=0.0567 ps=0.69 w=0.42 l=0.15
X3 a_59_75# A VPWR VPB sky130_fd_pr__pfet_01v8_hvt ad=0.0567 pd=0.69 as=0.118 ps=1.4 w=0.42 l=0.15
X4 X a_59_75# VGND VNB sky130_fd_pr__nfet_01v8 ad=0.182 pd=1.86 as=0.112 ps=1.04 w=0.65 l=0.15
X5 a_145_75# A a_59_75# VNB sky130_fd_pr__nfet_01v8 ad=0.0567 pd=0.69 as=0.118 ps=1.4 w=0.42 l=0.15
.ends

.subckt mux21 s1_mux21 out_mux21 in1_mux21 in0_mux21 s0_mux21 VSUBS vdd_mux21
Xsky130_fd_sc_hd__inv_1_4 s1_mux21 VSUBS VSUBS vdd_mux21 vdd_mux21 sky130_fd_sc_hd__inv_1_4/Y
+ sky130_fd_sc_hd__inv_1
Xsky130_fd_sc_hd__inv_1_5 VSUBS VSUBS VSUBS vdd_mux21 vdd_mux21 VSUBS sky130_fd_sc_hd__inv_1
Xsky130_fd_sc_hd__inv_1_6 VSUBS VSUBS VSUBS vdd_mux21 vdd_mux21 VSUBS sky130_fd_sc_hd__inv_1
Xsky130_fd_pr__nfet_01v8_ZRZL87_0 out_mux21 in0_mux21 VSUBS VSUBS VSUBS VSUBS VSUBS
+ s0_mux21 sky130_fd_sc_hd__and2_1_0/X sky130_fd_pr__nfet_01v8_ZRZL87
Xsky130_fd_sc_hd__inv_1_7 s0_mux21 VSUBS VSUBS vdd_mux21 vdd_mux21 sky130_fd_sc_hd__inv_1_7/Y
+ sky130_fd_sc_hd__inv_1
Xsky130_fd_pr__nfet_01v8_ZRZL87_1 out_mux21 in1_mux21 VSUBS VSUBS VSUBS VSUBS VSUBS
+ s1_mux21 sky130_fd_sc_hd__and2_1_0/X sky130_fd_pr__nfet_01v8_ZRZL87
Xsky130_fd_pr__pfet_01v8_3HMKL2_1 vdd_mux21 vdd_mux21 sky130_fd_sc_hd__inv_1_1/Y out_mux21
+ in1_mux21 vdd_mux21 in1_mux21 sky130_fd_pr__pfet_01v8_3HMKL2
Xsky130_fd_pr__pfet_01v8_3HMKL2_0 vdd_mux21 vdd_mux21 sky130_fd_sc_hd__inv_1_7/Y out_mux21
+ in0_mux21 vdd_mux21 in0_mux21 sky130_fd_pr__pfet_01v8_3HMKL2
Xsky130_fd_sc_hd__and2_1_0 sky130_fd_sc_hd__inv_1_4/Y sky130_fd_sc_hd__inv_1_3/Y VSUBS
+ VSUBS vdd_mux21 vdd_mux21 sky130_fd_sc_hd__and2_1_0/X sky130_fd_sc_hd__and2_1
Xsky130_fd_sc_hd__inv_1_1 s1_mux21 VSUBS VSUBS vdd_mux21 vdd_mux21 sky130_fd_sc_hd__inv_1_1/Y
+ sky130_fd_sc_hd__inv_1
Xsky130_fd_sc_hd__inv_1_0 VSUBS VSUBS VSUBS vdd_mux21 vdd_mux21 VSUBS sky130_fd_sc_hd__inv_1
Xsky130_fd_sc_hd__inv_1_2 VSUBS VSUBS VSUBS vdd_mux21 vdd_mux21 VSUBS sky130_fd_sc_hd__inv_1
Xsky130_fd_sc_hd__inv_1_3 s0_mux21 VSUBS VSUBS vdd_mux21 vdd_mux21 sky130_fd_sc_hd__inv_1_3/Y
+ sky130_fd_sc_hd__inv_1
.ends

.subckt sky130_fd_pr__cap_mim_m3_1_WE7GNF c1_n946_n600# m3_n986_n640#
X0 c1_n946_n600# m3_n986_n640# sky130_fd_pr__cap_mim_m3_1 l=6 w=8
.ends

.subckt balun p2 p1 s2 s1 pm li_n16698_36352#
Xsky130_fd_pr__res_generic_m5_EGUVWD_0 p1 pm sky130_fd_pr__res_generic_m5_EGUVWD
Xsky130_fd_pr__res_generic_m5_EGUVWD_1 p2 pm sky130_fd_pr__res_generic_m5_EGUVWD
Xsky130_fd_pr__res_generic_m5_EGUVWD_2 s2 m4_n12500_46821# sky130_fd_pr__res_generic_m5_EGUVWD
Xsky130_fd_pr__res_generic_m5_EGUVWD_3 s1 m4_n12500_46821# sky130_fd_pr__res_generic_m5_EGUVWD
.ends

.subckt pa_nfet_w15_nf4 M1G M2G M1D m1_199_1332# VSUB
Xsky130_fd_pr__nfet_01v8_QMBXET_0 M1D VSUB VSUB VSUB VSUB M2G m1_199_1332# M1D M1D
+ M1G M1G M1G VSUB m1_199_1332# m1_199_1332# VSUB VSUB m1_199_1332# M2G sky130_fd_pr__nfet_01v8_QMBXET
.ends

.subckt sky130_fd_pr__nfet_01v8_SGMZ76 a_n33_n375# a_n159_n463# a_159_n375# a_n221_n375#
+ a_n129_n375# a_63_n375# a_n323_n549#
X0 a_63_n375# a_n159_n463# a_n33_n375# a_n323_n549# sky130_fd_pr__nfet_01v8 ad=0.619 pd=4.08 as=0.619 ps=4.08 w=3.75 l=0.15
X1 a_n129_n375# a_n159_n463# a_n221_n375# a_n323_n549# sky130_fd_pr__nfet_01v8 ad=0.619 pd=4.08 as=1.16 ps=8.12 w=3.75 l=0.15
X2 a_n33_n375# a_n159_n463# a_n129_n375# a_n323_n549# sky130_fd_pr__nfet_01v8 ad=0.619 pd=4.08 as=0.619 ps=4.08 w=3.75 l=0.15
X3 a_159_n375# a_n159_n463# a_63_n375# a_n323_n549# sky130_fd_pr__nfet_01v8 ad=1.16 pd=8.12 as=0.619 ps=4.08 w=3.75 l=0.15
.ends

.subckt pa_nfet_w30_nf4 pa_nfet_w15_nf4_1/m1_199_1332# pa_nfet_w15_nf4_1/M1D pa_nfet_w15_nf4_1/M1G
+ VSUBS pa_nfet_w15_nf4_1/M2G
Xpa_nfet_w15_nf4_0 pa_nfet_w15_nf4_1/M1G pa_nfet_w15_nf4_1/M2G pa_nfet_w15_nf4_1/M1D
+ pa_nfet_w15_nf4_1/m1_199_1332# VSUBS pa_nfet_w15_nf4
Xpa_nfet_w15_nf4_1 pa_nfet_w15_nf4_1/M1G pa_nfet_w15_nf4_1/M2G pa_nfet_w15_nf4_1/M1D
+ pa_nfet_w15_nf4_1/m1_199_1332# VSUBS pa_nfet_w15_nf4
.ends

.subckt pa_nfet_w60_nf4 pa_nfet_w30_nf4_1/pa_nfet_w15_nf4_1/M1G pa_nfet_w30_nf4_1/pa_nfet_w15_nf4_1/m1_199_1332#
+ pa_nfet_w30_nf4_1/pa_nfet_w15_nf4_1/M2G pa_nfet_w30_nf4_1/pa_nfet_w15_nf4_1/M1D
+ VSUBS
Xpa_nfet_w30_nf4_0 pa_nfet_w30_nf4_1/pa_nfet_w15_nf4_1/m1_199_1332# pa_nfet_w30_nf4_1/pa_nfet_w15_nf4_1/M1D
+ pa_nfet_w30_nf4_1/pa_nfet_w15_nf4_1/M1G VSUBS pa_nfet_w30_nf4_1/pa_nfet_w15_nf4_1/M2G
+ pa_nfet_w30_nf4
Xpa_nfet_w30_nf4_1 pa_nfet_w30_nf4_1/pa_nfet_w15_nf4_1/m1_199_1332# pa_nfet_w30_nf4_1/pa_nfet_w15_nf4_1/M1D
+ pa_nfet_w30_nf4_1/pa_nfet_w15_nf4_1/M1G VSUBS pa_nfet_w30_nf4_1/pa_nfet_w15_nf4_1/M2G
+ pa_nfet_w30_nf4
.ends

.subckt sky130_fd_pr__cap_mim_m3_1_H9ZJA7 m3_n686_n590# c1_n646_n550#
X0 c1_n646_n550# m3_n686_n590# sky130_fd_pr__cap_mim_m3_1 l=5.5 w=5
.ends

.subckt pa_nfet_w120_nf4 pa_nfet_w60_nf4_1/pa_nfet_w30_nf4_1/pa_nfet_w15_nf4_1/M1G
+ pa_nfet_w60_nf4_1/pa_nfet_w30_nf4_1/pa_nfet_w15_nf4_1/M2G pa_nfet_w60_nf4_1/pa_nfet_w30_nf4_1/pa_nfet_w15_nf4_1/M1D
+ VSUBS
Xpa_nfet_w60_nf4_0 pa_nfet_w60_nf4_1/pa_nfet_w30_nf4_1/pa_nfet_w15_nf4_1/M1G pa_nfet_w60_nf4_1/pa_nfet_w30_nf4_1/pa_nfet_w15_nf4_1/m1_199_1332#
+ pa_nfet_w60_nf4_1/pa_nfet_w30_nf4_1/pa_nfet_w15_nf4_1/M2G pa_nfet_w60_nf4_1/pa_nfet_w30_nf4_1/pa_nfet_w15_nf4_1/M1D
+ VSUBS pa_nfet_w60_nf4
Xpa_nfet_w60_nf4_1 pa_nfet_w60_nf4_1/pa_nfet_w30_nf4_1/pa_nfet_w15_nf4_1/M1G pa_nfet_w60_nf4_1/pa_nfet_w30_nf4_1/pa_nfet_w15_nf4_1/m1_199_1332#
+ pa_nfet_w60_nf4_1/pa_nfet_w30_nf4_1/pa_nfet_w15_nf4_1/M2G pa_nfet_w60_nf4_1/pa_nfet_w30_nf4_1/pa_nfet_w15_nf4_1/M1D
+ VSUBS pa_nfet_w60_nf4
.ends

.subckt pa_total inn_pa inp_pa en_pa[3] en_pa[2] en_pa[1] en_pa[0] tunep_pa outn_pa
+ outp_pa vdd_pa VSUBS tunen_pa
Xsky130_fd_pr__cap_mim_m3_1_WE7GNF_7 outn_pa VSUBS sky130_fd_pr__cap_mim_m3_1_WE7GNF
Xbalun_0 tunen_pa tunep_pa outn_pa outp_pa vdd_pa VSUBS balun
Xpa_nfet_w15_nf4_0 inn_pa en_pa[0] tunen_pa pa_nfet_w15_nf4_0/m1_199_1332# VSUBS pa_nfet_w15_nf4
Xsky130_fd_pr__nfet_01v8_SGMZ76_0 VSUBS VSUBS VSUBS VSUBS VSUBS VSUBS VSUBS sky130_fd_pr__nfet_01v8_SGMZ76
Xsky130_fd_pr__nfet_01v8_SGMZ76_1 VSUBS VSUBS VSUBS VSUBS VSUBS VSUBS VSUBS sky130_fd_pr__nfet_01v8_SGMZ76
Xpa_nfet_w15_nf4_1 inp_pa en_pa[0] tunep_pa pa_nfet_w15_nf4_1/m1_199_1332# VSUBS pa_nfet_w15_nf4
Xpa_nfet_w60_nf4_0 inn_pa pa_nfet_w60_nf4_0/pa_nfet_w30_nf4_1/pa_nfet_w15_nf4_1/m1_199_1332#
+ en_pa[2] tunen_pa VSUBS pa_nfet_w60_nf4
Xsky130_fd_pr__nfet_01v8_SGMZ76_2 VSUBS VSUBS VSUBS VSUBS VSUBS VSUBS VSUBS sky130_fd_pr__nfet_01v8_SGMZ76
Xsky130_fd_pr__nfet_01v8_SGMZ76_3 VSUBS VSUBS VSUBS VSUBS VSUBS VSUBS VSUBS sky130_fd_pr__nfet_01v8_SGMZ76
Xpa_nfet_w60_nf4_2 inp_pa pa_nfet_w60_nf4_2/pa_nfet_w30_nf4_1/pa_nfet_w15_nf4_1/m1_199_1332#
+ en_pa[2] tunep_pa VSUBS pa_nfet_w60_nf4
Xsky130_fd_pr__cap_mim_m3_1_H9ZJA7_70 tunep_pa tunen_pa sky130_fd_pr__cap_mim_m3_1_H9ZJA7
Xsky130_fd_pr__cap_mim_m3_1_H9ZJA7_71 tunen_pa tunep_pa sky130_fd_pr__cap_mim_m3_1_H9ZJA7
Xsky130_fd_pr__cap_mim_m3_1_H9ZJA7_64 tunen_pa tunep_pa sky130_fd_pr__cap_mim_m3_1_H9ZJA7
Xsky130_fd_pr__cap_mim_m3_1_H9ZJA7_65 tunep_pa tunen_pa sky130_fd_pr__cap_mim_m3_1_H9ZJA7
Xpa_nfet_w120_nf4_1 inp_pa en_pa[3] tunep_pa VSUBS pa_nfet_w120_nf4
Xpa_nfet_w120_nf4_0 inn_pa en_pa[3] tunen_pa VSUBS pa_nfet_w120_nf4
Xpa_nfet_w30_nf4_0 pa_nfet_w30_nf4_0/pa_nfet_w15_nf4_1/m1_199_1332# tunep_pa inp_pa
+ VSUBS en_pa[1] pa_nfet_w30_nf4
Xpa_nfet_w30_nf4_1 pa_nfet_w30_nf4_1/pa_nfet_w15_nf4_1/m1_199_1332# tunen_pa inn_pa
+ VSUBS en_pa[1] pa_nfet_w30_nf4
Xsky130_fd_pr__cap_mim_m3_1_WE7GNF_0 outp_pa VSUBS sky130_fd_pr__cap_mim_m3_1_WE7GNF
Xsky130_fd_pr__cap_mim_m3_1_WE7GNF_1 VSUBS outp_pa sky130_fd_pr__cap_mim_m3_1_WE7GNF
Xsky130_fd_pr__cap_mim_m3_1_WE7GNF_3 outp_pa VSUBS sky130_fd_pr__cap_mim_m3_1_WE7GNF
Xsky130_fd_pr__cap_mim_m3_1_WE7GNF_2 VSUBS outp_pa sky130_fd_pr__cap_mim_m3_1_WE7GNF
Xsky130_fd_pr__cap_mim_m3_1_WE7GNF_4 outn_pa VSUBS sky130_fd_pr__cap_mim_m3_1_WE7GNF
Xsky130_fd_pr__cap_mim_m3_1_WE7GNF_5 VSUBS outn_pa sky130_fd_pr__cap_mim_m3_1_WE7GNF
Xsky130_fd_pr__cap_mim_m3_1_WE7GNF_6 VSUBS outn_pa sky130_fd_pr__cap_mim_m3_1_WE7GNF
.ends

.subckt sky130_fd_pr__nfet_01v8_722GYZ a_n275_n274# a_n173_n100# a_15_n100# a_n33_122#
+ a_111_n100# a_n147_n188# a_81_n188# a_n81_n100#
X0 a_15_n100# a_n33_122# a_n81_n100# a_n275_n274# sky130_fd_pr__nfet_01v8 ad=0.165 pd=1.33 as=0.165 ps=1.33 w=1 l=0.15
X1 a_111_n100# a_81_n188# a_15_n100# a_n275_n274# sky130_fd_pr__nfet_01v8 ad=0.31 pd=2.62 as=0.165 ps=1.33 w=1 l=0.15
X2 a_n81_n100# a_n147_n188# a_n173_n100# a_n275_n274# sky130_fd_pr__nfet_01v8 ad=0.165 pd=1.33 as=0.31 ps=2.62 w=1 l=0.15
.ends

.subckt sky130_fd_pr__nfet_01v8_DGP55P a_n458_n19# a_n560_n193# a_n400_n107# a_400_n19#
X0 a_400_n19# a_n400_n107# a_n458_n19# a_n560_n193# sky130_fd_pr__nfet_01v8 ad=0.145 pd=1.58 as=0.145 ps=1.58 w=0.5 l=4
.ends

.subckt sky130_fd_pr__cap_mim_m3_1_FJFAMD m3_n386_n240# c1_n346_n200#
X0 c1_n346_n200# m3_n386_n240# sky130_fd_pr__cap_mim_m3_1 l=2 w=2
.ends

.subckt sky130_fd_sc_hd__mux4_1 A0 A1 A2 A3 S0 S1 VGND VNB VPB VPWR X
X0 a_277_47# a_247_21# a_27_413# VPB sky130_fd_pr__pfet_01v8_hvt ad=0.0567 pd=0.69 as=0.109 ps=1.36 w=0.42 l=0.15
X1 VGND S0 a_247_21# VNB sky130_fd_pr__nfet_01v8 ad=0.109 pd=1.36 as=0.109 ps=1.36 w=0.42 l=0.15
X2 a_834_97# a_247_21# a_750_97# VNB sky130_fd_pr__nfet_01v8 ad=0.108 pd=1.36 as=0.0567 ps=0.69 w=0.42 l=0.15
X3 VGND A3 a_668_97# VNB sky130_fd_pr__nfet_01v8 ad=0.0567 pd=0.69 as=0.108 ps=1.36 w=0.42 l=0.15
X4 a_1290_413# S1 VPWR VPB sky130_fd_pr__pfet_01v8_hvt ad=0.109 pd=1.36 as=0.109 ps=1.36 w=0.42 l=0.15
X5 a_834_97# A2 VGND VNB sky130_fd_pr__nfet_01v8 ad=0.109 pd=1.36 as=0.0567 ps=0.69 w=0.42 l=0.15
X6 a_750_97# S0 a_757_363# VPB sky130_fd_pr__pfet_01v8_hvt ad=0.0567 pd=0.69 as=0.108 ps=1.36 w=0.42 l=0.15
X7 a_27_47# S0 a_277_47# VNB sky130_fd_pr__nfet_01v8 ad=0.109 pd=1.36 as=0.0852 ps=0.925 w=0.42 l=0.15